##TITLE=JL-noe1d H2O ubackup comet 26
##JCAMPDX= 6.0         $$ Bruker NMR JCAMP-DX V2.0
##DATA TYPE= NMR SPECTRUM
##DATA CLASS= NTUPLES
##ORIGIN= BRUKER
##OWNER= comet
##LONG DATE= 2009/10/05 11:22:58+0000
$$ 1.90.2.2 TopSpin 3.5 pl 7
$$ 2019-03-11 20:30:09.748 -0500  Alejandro@DESKTOP-EKN8B2A
$$ Compression mode = diff/dup
##.OBSERVE FREQUENCY= 600.2928233
##.OBSERVE NUCLEUS= ^1H
##.ACQUISITION MODE= SIMULTANEOUS (DQD)
##.ACQUISITION SCHEME= undefined
##.AVERAGES= 128
##.DIGITISER RES= 18
##SPECTROMETER/DATA SYSTEM= spect
##.PULSE SEQUENCE= noesypr1d
##.SOLVENT NAME= H2O
##.SHIFT REFERENCE= INTERNAL, H2O, 1, 14.8021
##AUDIT TRAIL= $$ (NUMBER, WHEN, WHO, WHERE, PROCESS, VERSION, WHAT)
$$ ##TITLE= Audit trail, XWIN-NMR		Version 3.5
$$ ##JCAMPDX= 5.01
$$ ##ORIGIN= Bruker BioSpin GmbH
$$ ##OWNER= comet
$$ $$ /ubackup/data/comet/nmr/JL_bariatricrat/455/pdata/1/auditp.txt
$$ ##AUDIT TRAIL=  $$ (NUMBER, WHEN, WHO, WHERE, WHAT)
(   1,<2009-10-05 12:22:58.97 +0100>,<comet>,<bc-jkn-17>,
      <created by zg, POWCHK disabled, PULCHK disabled
       configuration hash MD5:
       E7 3B 2F 71 FF 3F FA 50 42 28 BF C9 3E C3 F6 17
       data hash MD5: 64K
       1C 64 C6 ED 2A BF 6B 7D 66 DA 69 D1 3C 08 0C 02>)
(   2,<2009-10-05 12:23:03.07 +0100>,<comet>,<bc-jkn-17>,
      <Start of raw data processing
       efp LB = 0.3 FT_mod = 6 PKNL = 1 PHC0 = 23.99725 PHC1 = -13.80001 SI = 32K 
       data hash MD5: 32K
       11 B3 52 90 E0 3E 97 C6 6C 62 BF 15 A2 F2 00 2C>)
(   3,<2019-03-11 20:30:09.764 -0500>,<Alejandro>,<DESKTOP-EKN8B2A>,<jcamp>,<TopSpin 3.5.7>,
      <Unknown data manipulation detected
       data hash MD5: 32K
       65 4A A0 06 3A D0 B7 6F B4 CF 49 A0 D5 D3 A6 E0>)
$$ ##END=
$$ 
$$ $$ hash MD5
$$ $$ E8 2C 55 E5 3D 35 0E 2D 1B A3 C9 3A 59 AB F8 D5
##$RELAX= 
##$BRUKER FILE EXP=format.temp
$$ EDIT_PAR COMMAND FILE
$$ 
$$ DI_MODE         LONG
$$ ED_ENTRY        ACQU
$$ ORDER           FILE
$$ 
$$ 
$$ HEADER		"F2 - Acquisition Parameters"
$$ T_NAME		Date_
$$ 		TYPE	R64
$$ 		CLASS	ACQU
$$ 		SUBRANGE 0.0 50000000
$$ 		REL	"Date_=itodate(DATE)"
$$ 		INV_REL	"DATE=datetoi(Date_,DATE)"
$$ 		FORMAT	"%14.0f"
$$ 		TEXT	" "
$$ END
$$ T_NAME		Time
$$ 		TYPE	R32
$$ 		CLASS	ACQU
$$ 		SUBRANGE 0.0 1000000
$$ 		REL	"Time=itotime(DATE)"
$$ 		INV_REL	"DATE=timetoi(Time,DATE)"
$$ 		FORMAT	"%14.2f"
$$ 		TEXT	" "
$$ END
$$ NAME		INSTRUM
$$ 		TEXT	" "
$$ END
$$ NAME		PROBHD
$$ 		FORMAT	"%14.14s"
$$ 		TEXT	" "
$$ END
$$ NAME		PULPROG
$$ 		TEXT	" "
$$ END
$$ NAME		TD
$$ 		TEXT	" "
$$ END
$$ NAME		SOLVENT
$$ 		TEXT	" "
$$ END
$$ NAME		NS
$$ 		TEXT	" "
$$ END
$$ NAME		DS
$$ 		TEXT	" "
$$ END
$$ T_NAME		SWH
$$ 		TYPE	R32
$$ 		CLASS	ACQU
$$ 		SUBRANGE 0.0 1e8
$$ 		REL	"SWH=SW*SFO1"
$$ 		INV_REL "SW=SWH/SFO1"
$$ 		UNIT	"Hz"
$$ 		FORMAT	"%14.3f Hz"
$$ 		TEXT	" "
$$ END
$$ T_NAME          FIDRES
$$                 TYPE    R32
$$                 CLASS   ACQU
$$                 SUBRANGE 0.0 100000
$$                 REL     "FIDRES=SW*SFO1/TD"
$$                 INV_REL "TD = nextpow(SW*SFO1/FIDRES)"
$$ 		UNIT	"Hz"
$$ 		FORMAT	"%14.6f Hz"
$$ 		TEXT	" "
$$ END
$$ T_NAME          AQ
$$ 		TYPE	R32
$$ 		CLASS	ACQU
$$ 		SUBRANGE 0.0 1000
$$ 		REL	"AQ=aqcalc(SW,SFO1,TD,DIGTYP)"
$$ 		INV_REL	"TD=tdcalc(SW,SFO1,1.0e6*AQ,DIGTYP)"
$$ 		UNIT	"sec"
$$ 		FORMAT	"%14.7f sec"
$$ 		TEXT	" "
$$ END
$$ NAME		RG
$$ 		TEXT	" "
$$ END
$$ T_NAME          DW
$$ 		TYPE	R32
$$ 		CLASS	ACQU
$$ 		SUBRANGE 0.0 1000000
$$ 		REL	"DW=1/(2*SW*SFO1)"
$$ 		INV_REL	"SW=1000000/(2*(0.005+DW)*SFO1)"
$$ 		UNIT	"usec"
$$ 		FORMAT	"%14.3lf usec"
$$ 		TEXT	" "
$$ END
$$ NAME		DE
$$ 		FORMAT	"%14.2f usec"
$$ 		TEXT	" "
$$ END
$$ NAME		TE
$$ 		FORMAT	"%14.1f K"
$$ 		TEXT	" "
$$ END
$$ T_NAME		D1
$$ 		TYPE	R32
$$ 		CLASS	ACQU
$$ 		SUBRANGE 0.0 1000000
$$ 		REL	"D1=D[1]"
$$ 		INV_REL	"D[1]=D1"
$$ 		UNIT	"sec"
$$ 		FORMAT	"%14.8f sec"
$$ 		TEXT	" "
$$ END
$$ T_NAME		D8
$$ 		TYPE	R32
$$ 		CLASS	ACQU
$$ 		SUBRANGE 0.0 1000000
$$ 		REL	"D8=D[8]"
$$ 		INV_REL	"D[8]=D8"
$$ 		UNIT	"sec"
$$ 		FORMAT	"%14.8f sec"
$$ 		TEXT	" "
$$ END
$$ T_NAME		D11
$$ 		TYPE	R32
$$ 		CLASS	ACQU
$$ 		SUBRANGE 0.0 1000000
$$ 		REL	"D11=D[11]"
$$ 		INV_REL	"D[11]=D11"
$$ 		UNIT	"sec"
$$ 		FORMAT	"%14.8f sec"
$$ 		TEXT	" "
$$ END
$$ T_NAME		d12
$$ 		TYPE	R32
$$ 		SUBRANGE 0.0 1e8
$$ 		CLASS	ACQU
$$ 		REL	"d12=20u"
$$ 		INV_REL	"D[0]=d12"
$$ 		UNIT	"sec"
$$ 		TEXT	" "
$$ 		FORMAT	"%14.8f sec"
$$ 		NONEDIT
$$ END
$$ T_NAME		MCREST 
$$ 		TYPE	R32
$$ 		SUBRANGE 0.0 1e8
$$ 		CLASS	ACQU
$$ 		REL	"MCREST = 30m - 30m"
$$ 		INV_REL	"D[0]=MCREST "
$$ 		UNIT	"sec"
$$ 		TEXT	" "
$$ 		FORMAT	"%14.8f sec"
$$ 		NONEDIT
$$ END
$$ T_NAME		MCWRK 
$$ 		TYPE	R32
$$ 		SUBRANGE 0.0 1e8
$$ 		CLASS	ACQU
$$ 		REL	"MCWRK = 0.500000*30m"
$$ 		INV_REL	"D[0]=MCWRK "
$$ 		UNIT	"sec"
$$ 		TEXT	" "
$$ 		FORMAT	"%14.8f sec"
$$ 		NONEDIT
$$ END
$$ HEADER		"======== CHANNEL f1 ========"
$$ NAME		NUC1
$$ 		TEXT	" "
$$ END
$$ T_NAME		P1
$$ 		TYPE	R32
$$ 		CLASS	ACQU
$$ 		SUBRANGE 0.0 1.0e10
$$ 		REL	"P1=P[1]"
$$ 		INV_REL	"P[1]=P1"
$$ 		UNIT	"usec"
$$ 		FORMAT	"%14.2f usec"
$$ 		TEXT	" "
$$ END
$$ T_NAME		PL1
$$ 		TYPE	R32
$$ 		CLASS	ACQU
$$ 		SUBRANGE -6.0 120
$$ 		REL	"PL1=PL[1]"
$$ 		INV_REL	"PL[1]=PL1"
$$ 		UNIT	"dB"
$$ 		FORMAT	"%14.2f dB"
$$ 		TEXT	" "
$$ END
$$ T_NAME		PL9
$$ 		TYPE	R32
$$ 		CLASS	ACQU
$$ 		SUBRANGE -6.0 120
$$ 		REL	"PL9=PL[9]"
$$ 		INV_REL	"PL[9]=PL9"
$$ 		UNIT	"dB"
$$ 		FORMAT	"%14.2f dB"
$$ 		TEXT	" "
$$ END
$$ NAME		SFO1
$$ 		FORMAT	"%14.7f MHz"
$$ 		TEXT	" "
$$ END
##$RELAX= 
##$BRUKER FILE EXP=scon
$$ ##TITLE= Parameter file, XWIN-NMR		Version 3.5
$$ ##JCAMPDX= 5.0
$$ ##DATATYPE= Parameter Values
$$ ##ORIGIN= Bruker BioSpin GmbH
$$ ##OWNER= comet
$$ $$ Mon Oct  5 12:11:54 2009 BST (UT+1h)  comet@bc-jkn-17
$$ $$ /ubackup/data/comet/nmr/JL_bariatricrat/455/scon
$$ ##$BLKPA= (0..15)
3 3 3 3 3 3 3 3 3 3 3 3 3 3 3 3 
$$ ##$BLKTR= (0..15)
3 3 3 3 3 3 3 3 3 3 3 3 3 3 3 3 
$$ ##$DE1= 2
$$ ##$DE2= 2
$$ ##$DEADC= 4
$$ ##$DEPA= 2
$$ ##$DERX= 3
$$ ##$PHASP4= (0..15)
0.5 0.5 0.5 0.5 0.5 0.5 0.5 0.5 0.5 0.5 0.5 0.5 0.5 0.5 0.5 0.5 
$$ ##$PHASPR= (0..15)
3 4 3 3 3 3 3 3 3 3 3 3 3 3 3 3 
$$ ##$SHAPPR= (0..15)
1.6 0 1.6 1.6 1.6 1.6 1.6 1.6 1.6 1.6 1.6 1.6 1.6 1.6 1.6 1.6 
$$ ##END=
##$RELAX= 
##$BRUKER FILE EXP=pulseprogram
$$ # 1 "/u/exp/stan/nmr/lists/pp/noesypr1d"
$$ ;noesypr1d
$$ ;avance-version (02/05/31)
$$ ;1D version of noesyprtp
$$ ;with presaturation during relaxation delay and mixing time
$$ 
$$ 
$$ # 1 "/u/exp/stan/nmr/lists/pp/Avance.incl" 1
$$ ;Avance.incl
$$ ;
$$ ;avance-version (03/02/17)
$$ 
$$ 
$$ 
$$ 
$$ 
$$ 
$$ 
$$ 
$$ 
$$ 
$$ 
$$ 
$$ 
$$ 
$$ 
$$ 
$$ 
$$ 
$$ 
$$ 
$$ 
$$ 
$$ 
$$ 
$$ 
$$ 
$$ 
$$ 
$$ 
$$ 
$$ 
$$ 
$$ 
$$ 
$$ 
$$ 
$$ 
$$ 
$$ 
$$ 
$$ 
$$ 
$$ 
$$ 
$$ 
$$ 
$$ 
$$ 
$$ 
$$ 
$$ 
$$ 
$$ 
$$ 
$$ 
$$ 
$$ 
$$ 
$$ 
$$ 
$$ 
$$ 
$$ 
$$ 
$$ 
$$ 
$$ 
$$ 
$$ 
$$ 
$$ 
$$ 
$$ 
$$ 
$$ 
$$ 
$$ 
$$ 
$$ 
$$ 
$$ 
$$ 
$$ 
$$ 
$$ 
$$ 
$$ 
$$ 
$$ 
$$ 
$$ 
$$ 
$$ 
$$ 
$$ 
$$ 
$$ 
$$ 
$$ 
$$ 
$$ 
$$ 
$$ 
$$ 
$$ 
$$ 
$$ 
$$ 
$$ 
$$ 
$$ 
$$ 
$$ 
$$ 
$$ ;$Id: Avance1.incl,v 1.7.2.3 2003/02/25 14:48:47 ber Exp $
$$ # 7 "/u/exp/stan/nmr/lists/pp/noesypr1d" 2
$$ 
$$ 
$$ 
$$ 
$$ "d11=30m"
$$ 
$$ "d12=20u"
$$ 
$$ 
$$ # 1 "mc_line 16 file /u/exp/stan/nmr/lists/pp/noesypr1d expanding definition part of mc command before ze"
$$ define delay MCWRK
$$ define delay MCREST
$$ "MCWRK = 0.500000*30m"
$$ "MCREST = 30m - 30m"
$$ # 16 "/u/exp/stan/nmr/lists/pp/noesypr1d"
$$ 1 ze
$$ # 1 "mc_line 16 file /u/exp/stan/nmr/lists/pp/noesypr1d expanding definition of mc command after ze"
$$ # 17 "/u/exp/stan/nmr/lists/pp/noesypr1d"
$$ # 1 "mc_line 17 file /u/exp/stan/nmr/lists/pp/noesypr1d expanding start label for mc command"
$$ 2 MCWRK  * 2
$$ LBLF0, MCREST
$$ # 18 "/u/exp/stan/nmr/lists/pp/noesypr1d"
$$   d12 pl9:f1
$$   d1 cw:f1 ph29
$$   4u do:f1
$$   d12 pl1:f1
$$   p1 ph1
$$   4u
$$   p1 ph2
$$   d12 pl9:f1
$$   d8 cw:f1
$$   4u do:f1
$$   d12 pl1:f1
$$   p1 ph3
$$   go=2 ph31
$$ # 1 "mc_line 31 file /u/exp/stan/nmr/lists/pp/noesypr1d expanding mc command in line"
$$   MCWRK wr #0
$$   MCWRK zd 
$$   lo to LBLF0 times td0
$$ 
$$ # 32 "/u/exp/stan/nmr/lists/pp/noesypr1d"
$$ exit
$$ 
$$ 
$$ ph1=0 2 
$$ ph2=0 0 0 0 0 0 0 0 2 2 2 2 2 2 2 2
$$ ph3=0 0 2 2 1 1 3 3
$$ ph29=0
$$ ph31=0 2 2 0 1 3 3 1 2 0 0 2 3 1 1 3
$$ 
$$ 
$$ ;pl1 : f1 channel - power level for pulse (default)
$$ ;pl9 : f1 channel - power level for presaturation
$$ ;p1 : f1 channel -  90 degree high power pulse
$$ ;d1 : relaxation delay; 1-5 * T1
$$ ;d8 : mixing time
$$ ;d11: delay for disk I/O                             [30 msec]
$$ ;d12: delay for power switching                      [20 usec]
$$ ;NS: 8 * n, total number of scans: NS * TD0
$$ ;DS: 4
$$ 
$$ 
$$ 
$$ ;$Id: noesypr1d,v 1.7 2002/06/12 09:05:10 ber Exp $
##$RELAX= 
##$BRUKER FILE EXP=uxnmr.par
$$ ##TITLE= Parameter file, XWIN-NMR		Version 3.5
$$ ##JCAMPDX= 5.0
$$ ##DATATYPE= Parameter Values
$$ ##ORIGIN= Bruker Analytik GmbH
$$ ##OWNER= guest
$$ $$ Thu Jun  4 11:00:46 2009 BST (UT+1h)  comet@bc-jkn-17
$$ $$ /u/conf/instr/spect/uxnmr.par
$$ ##$ACB= 1
$$ ##$ACBTAT= (0..15)
0 88 72 72 0 0 0 0 0 0 0 0 0 0 0 0 
$$ ##$ACBTBA= (0..15)
0 40 30 50 0 0 0 0 0 0 0 0 0 0 0 0 
$$ ##$ACBTCTL= (0..15)
0 1 1 1 0 0 0 0 0 0 0 0 0 0 0 0 
$$ ##$ACBTDI= (0..15)
0 70 70 70 0 0 0 0 0 0 0 0 0 0 0 0 
$$ ##$ACBTDM= (0..15)
0 8 25 0 0 0 0 0 0 0 0 0 0 0 0 0 
$$ ##$ACBTFHI= (0..15)
0 243 600 600 0 0 0 0 0 0 0 0 0 0 0 0 
$$ ##$ACBTFL= (0..15)
0 249 250 27 0 0 0 0 0 0 0 0 0 0 0 0 
$$ ##$ACBTFLO= (0..15)
0 6 470 470 0 0 0 0 0 0 0 0 0 0 0 0 
$$ ##$ACBTOUT= (0..15)
0 2 1 1 0 0 0 0 0 0 0 0 0 0 0 0 
$$ ##$ACBTPO= (0..15)
0 300000 50000 500 0 0 0 0 0 0 0 0 0 0 0 0 
$$ ##$ACBTPW= (0..15)
0 100 100 0 0 0 0 0 0 0 0 0 0 0 0 0 
$$ ##$ACBTSB= (0..15)
0 1 1 1 0 0 0 0 0 0 0 0 0 0 0 0 
$$ ##$ACBTY= <tty04>
$$ ##$AQSBDHW= (0..31)
255 255 1 1 1 255 255 255 0 0 255 255 255 255 255 255 255 255 255 0 255 
255 255 255 255 255 255 255 255 255 255 255 
$$ ##$AQSBDID= (0..31)
255 255 88 83 83 255 255 255 65 67 255 255 255 255 255 255 255 255 255 
66 255 255 255 255 255 255 255 255 255 255 255 255 
$$ ##$AQSBDNO= (0..31)
255 255 1 1 2 255 255 255 1 208 255 255 255 255 255 255 255 255 255 1 
255 255 255 255 255 255 255 255 255 255 255 255 
$$ ##$AQSBDTY= (0..31)
255 255 3 0 0 255 255 255 5 9 255 255 255 255 255 255 255 255 255 7 255 
255 255 255 255 255 255 255 255 255 255 255 
$$ ##$AQSBUAD= (0..31)
255 255 52 36 37 255 255 255 54 62 255 255 255 255 255 255 255 255 255 
32 255 255 255 255 255 255 255 255 255 255 255 255 
$$ ##$AQSECL= (0..31)
255 255 1 1 1 255 255 255 1 0 255 255 255 255 255 255 255 255 255 255 
255 255 255 255 255 255 255 255 255 255 255 255 
$$ ##$AQSECLS= (0..31)
255 255 0 0 0 255 255 255 0 0 255 255 255 255 255 255 255 255 255 255 
255 255 255 255 255 255 255 255 255 255 255 255 
$$ ##$ATT19F= (0..1)
-1 -1 
$$ ##$ATT1H= (0..1)
-1 -1 
$$ ##$ATT3H= (0..1)
-1 -1 
$$ ##$ATTX= (0..1)
-1 -1 
$$ ##$ATTY= (0..1)
-1 -1 
$$ ##$ATTZ= (0..1)
-1 -1 
$$ ##$BACSTY= <no>
$$ ##$BARPTY= <no>
$$ ##$BFREQ= 600.29
$$ ##$BIRDS= no
$$ ##$BMPC= 0
$$ ##$BMPCTY= <no>
$$ ##$BPSUTY= <no>
$$ ##$BSMS= 1
$$ ##$BSMSTY= <tty02>
$$ ##$CFASMOD= (0..7)
3 3 3 0 0 0 0 0 
$$ ##$CFASMUL= (0..7)
2 2 2 0 0 0 0 0 
$$ ##$CNFTXDR= (0..7)
3 3 4 0 0 0 0 0 
$$ ##$COMDIG2= 0
$$ ##$CPDBTY= <no>
$$ ##$CRCOTY= <tty13>
$$ ##$DIGI140= (0..7)
0 0 0 0 0 0 0 0 
$$ ##$DIGIB12= (0..7)
0 0 0 0 0 0 0 0 
$$ ##$DIGIB16= (0..7)
0 0 0 0 0 0 0 0 
$$ ##$DIGIFA= (0..7)
0 0 0 0 0 0 0 0 
$$ ##$DIGIHA= (0..7)
0 0 0 0 0 0 0 0 
$$ ##$DIGIHAF= (0..7)
1 0 0 0 0 0 0 0 
$$ ##$DIGIHRD= (0..7)
0 0 0 0 0 0 0 0 
$$ ##$DIGIIA= (0..7)
0 0 0 0 0 0 0 0 
$$ ##$DIGIO16= (0..7)
0 0 0 0 0 0 0 0 
$$ ##$DIGISA= (0..7)
0 0 0 0 0 0 0 0 
$$ ##$DIGISAF= (0..7)
0 0 0 0 0 0 0 0 
$$ ##$DIGISL= (0..7)
0 0 0 0 0 0 0 0 
$$ ##$DIGITYI= (0..7)
0 0 0 0 0 0 0 0 
$$ ##$DIGITYP= (0..7)
2 0 0 0 0 0 0 0 
$$ ##$DIGITZ= 0
$$ ##$FCUMEM= (0..7)
258048 258048 258048 0 0 0 0 0 
$$ ##$FCUPAL= (0..7)
3 3 3 0 0 0 0 0 
$$ ##$FQMIX= 0
$$ ##$FUNCMOD= <>
$$ ##$GCUTYPE= 1
$$ ##$HFAC= 3
$$ ##$HPCU= 0
$$ ##$HPCUTY= <no>
$$ ##$HPTXLP= (0..3)
-1 -1 -1 -1 
$$ ##$HPTXPI= (0..3)
0 0 0 0 
$$ ##$HPTXPO= (0..3)
0 0 0 0 
$$ ##$HPTXTY= (0..3)
0 0 0 0 
$$ ##$IF451= 0
$$ ##$IFREQ= 1
$$ ##$INTFPR= 0
$$ ##$LOCKTY= <tty03>
$$ ##$LOCSWID= 0
$$ ##$M2FAC= 1
$$ ##$MASTY= <tty07>
$$ ##$MEMPRM= 0
$$ ##$MHFAC= 1
$$ ##$MXFAC= 1
$$ ##$NAMPD1= <2H>
$$ ##$NAMPD10= <>
$$ ##$NAMPD11= <>
$$ ##$NAMPD12= <>
$$ ##$NAMPD13= <>
$$ ##$NAMPD14= <>
$$ ##$NAMPD15= <>
$$ ##$NAMPD16= <>
$$ ##$NAMPD2= <1H>
$$ ##$NAMPD3= <X-BB19F_2HS>
$$ ##$NAMPD4= <>
$$ ##$NAMPD5= <>
$$ ##$NAMPD6= <>
$$ ##$NAMPD7= <>
$$ ##$NAMPD8= <>
$$ ##$NAMPD9= <>
$$ ##$NFCU= 3
$$ ##$NMRCH= 0
$$ ##$NMRMEM= 0
$$ ##$NRCU= 1
$$ ##$NROUT= 1
$$ ##$PAMPF1= (0..15)
75 99 0 27 2 0 0 203 16 12 158 200 16 12 99 234 
$$ ##$PAMPF2= (0..15)
0 0 0 0 0 0 0 0 0 0 0 0 0 0 0 0 
$$ ##$PAMPF3= (0..15)
0 0 0 0 0 0 0 0 0 0 0 0 0 0 0 0 
$$ ##$PAMPF4= (0..15)
0 0 0 0 0 0 0 0 0 0 0 0 0 0 0 0 
$$ ##$PAMPF5= (0..15)
0 0 0 0 0 0 0 0 0 0 0 0 0 0 0 0 
$$ ##$PAMPF6= (0..15)
0 0 0 0 0 0 0 0 0 0 0 0 0 0 0 0 
$$ ##$PAMPF7= (0..15)
0 0 0 0 0 0 0 0 0 0 0 0 0 0 0 0 
$$ ##$PAMPF8= (0..15)
0 0 0 0 0 0 0 0 0 0 0 0 0 0 0 0 
$$ ##$PH4= 0
$$ ##$PHF4TY= <no>
$$ ##$POWCHK= no
$$ ##$PRAMD1= (0..7)
0 1048576 0 0 0 1048576 0 0 
$$ ##$PRAMD10= (0..7)
0 0 0 0 0 0 0 0 
$$ ##$PRAMD11= (0..7)
0 0 0 0 0 0 0 0 
$$ ##$PRAMD12= (0..7)
0 0 0 0 0 0 0 0 
$$ ##$PRAMD13= (0..7)
0 0 0 0 0 0 0 0 
$$ ##$PRAMD14= (0..7)
0 0 0 0 0 0 0 0 
$$ ##$PRAMD15= (0..7)
0 0 0 0 0 0 0 0 
$$ ##$PRAMD16= (0..7)
0 0 0 0 0 0 0 0 
$$ ##$PRAMD2= (0..7)
0 0 0 0 0 0 0 0 
$$ ##$PRAMD3= (0..7)
2 0 0 0 2 0 0 0 
$$ ##$PRAMD4= (0..7)
2147483644 2146435071 2147483647 134217727 2147483644 2146435071 2147483647 
134217727 
$$ ##$PRAMD5= (0..7)
0 0 0 0 0 0 0 0 
$$ ##$PRAMD6= (0..7)
0 0 0 0 0 0 0 0 
$$ ##$PRAMD7= (0..7)
0 0 0 0 0 0 0 0 
$$ ##$PRAMD8= (0..7)
0 0 0 0 0 0 0 0 
$$ ##$PRAMD9= (0..7)
0 0 0 0 0 0 0 0 
$$ ##$PRAMLED= (0..1)
15 15 
$$ ##$PRAMP1= <tty01>
$$ ##$PRAMP2= <no>
$$ ##$PRAMP3= <no>
$$ ##$PRAMP4= <no>
$$ ##$PRAMP5= <no>
$$ ##$PRAMP6= <no>
$$ ##$PRAMP7= <no>
$$ ##$PRAMP8= <no>
$$ ##$PRAMPTP= 0
$$ ##$PREPTY= <no>
$$ ##$PRESHLD= 0
$$ ##$PTS160= -1
$$ ##$PTSA2X= (0..7)
0 0 0 0 0 0 0 0 
$$ ##$PTSF2X= (0..7)
500 500 500 0 0 0 0 0 
$$ ##$PTSFMX= (0..7)
1000 1000 1000 0 0 0 0 0 
$$ ##$PULCHK= no
$$ ##$RCUCDS= (0..7)
4194304 0 0 0 0 0 0 0 
$$ ##$RCUCFS= (0..7)
4096 0 0 0 0 0 0 0 
$$ ##$RCUCSS= (0..7)
262144 0 0 0 0 0 0 0 
$$ ##$RCUI2C1= (0..7)
78 66 0 0 0 0 0 0 
$$ ##$RCUI2C2= (0..7)
0 0 0 0 0 0 0 0 
$$ ##$RCUI2C3= (0..7)
0 0 0 0 0 0 0 0 
$$ ##$RCUI2C4= (0..7)
0 0 0 0 0 0 0 0 
$$ ##$RCUI2C5= (0..7)
0 0 0 0 0 0 0 0 
$$ ##$RCUI2C6= (0..7)
0 0 0 0 0 0 0 0 
$$ ##$RCUI2C7= (0..7)
0 0 0 0 0 0 0 0 
$$ ##$RCUI2C8= (0..7)
0 0 0 0 0 0 0 0 
$$ ##$RDCU= 0
$$ ##$RGTYPE= (0..7)
5 0 0 0 0 0 0 0 
$$ ##$RG_max= (0..7)
46341 0 0 0 0 0 0 0 
$$ ##$RG_min= (0..7)
1 0 0 0 0 0 0 0 
$$ ##$ROUTER= 2
$$ ##$RX22TY= <tty20>
$$ ##$SCMTY= <no>
$$ ##$SPECTR= 5
$$ ##$SY2FLAG= 0
$$ ##$TFXNUM= 0
$$ ##$TRIPLO2= 0
$$ ##$VTUTY= <tty09>
$$ ##$WBREFAM= (0..15)
100 100 100 100 100 100 100 100 100 100 100 100 100 100 100 100 
$$ ##$WBREFPH= (0..15)
0 0 0 0 0 0 0 0 0 0 0 0 0 0 0 0 
$$ ##$XFAC= 2
$$ ##END=
##$RELAX= 
$$ Bruker specific parameters
$$ --------------------------
##$DATPATH= <C:/Users/JuanCBA/Downloads/Telegram Desktop/BariatricBruker>
##$EXPNO= 455
##$NAME= <BariatricBruker>
##$PROCNO= 1
##$ACQT0= 0
##$AMP= (0..31)
100 100 100 100 100 100 100 100 100 100 100 100 100 100 100 100 100 100
100 100 100 100 100 100 100 100 100 100 100 100 100 100
##$AMPCOIL= (0..19)
0 0 0 0 0 0 0 0 0 0 0 0 0 0 0 0 0 0 0 0
##$ANAVPT= 1
##$AQSEQ= 0
##$AQ_mod= 3
##$AUNM= <bcBAC60_shimrga>
##$AUTOPOS= <26 >
##$BF1= 600.29
##$BF2= 600.29
##$BF3= 600.29
##$BF4= 600.29
##$BF5= 600.29
##$BF6= 600.29
##$BF7= 600.29
##$BF8= 600.29
##$BWFAC= (0..63)
0 0 0 0 0 0 0 0 0 0 0 0 0 0 0 0 0 0 0 0 0 0 0 0 0 0 0 0 0 0 0 0 0 0 0 0
0 0 0 0 0 0 0 0 0 0 0 0 0 0 0 0 0 0 0 0 0 0 0 0 0 0 0 0
##$BYTORDA= 1
##$CAGPARS= (0..11)
0 0 0 0 0 0 0 0 0 0 0 0
##$CHEMSTR= <none>
##$CNST= (0..63)
1 1 145 1 1 1 1 1 1 1 1 1 1 1 1 1 1 1 1 1 1 1 1 1 1 1 1 1 1 1 1 1 1 1 1
1 1 1 1 1 1 1 1 1 1 1 1 1 1 1 1 1 1 1 1 1 1 1 1 1 1 1 1 1
##$CPDPRG= (0..8)
<garp> <> <garp> <> <mlev> <mlev> <mlev> <mlev> <mlev>
##$D= (0..63)
0 2 0 0 0 0 0 0 0.1 0.06 0 0.03 2e-005 3e-006 0 0 0.0001 0 0 0 0 0 0 0
0 0 0 0 0 0 0 0 0 0 0 0 0 0 0 0 0 0 0 0 0 0 0 0 0 0 0 0 0 0 0 0 0 0 0 0
0 0 0 0
##$DATE= 1254741778
##$DE= 7
##$DECBNUC= <off>
##$DECIM= 16
##$DECNUC= <off>
##$DECSTAT= 4
##$DIGMOD= 1
##$DIGTYP= 8
##$DQDMODE= 0
##$DR= 18
##$DS= 8
##$DSPFIRM= 0
##$DSPFVS= 12
##$DTYPA= 0
##$EXP= <JL-noe1d>
##$FCUCHAN= (0..9)
0 1 0 0 0 0 0 0 0 0
##$FL1= 90
##$FL2= 90
##$FL3= 90
##$FL4= 90
##$FN_INDIRECT= (0..7)
0 0 0 0 0 0 0 0
##$FOV= 20
##$FQ1LIST= <nb1904001>
##$FQ2LIST= <freqlist>
##$FQ3LIST= <freqlist>
##$FQ4LIST= <freqlist>
##$FQ5LIST= <freqlist>
##$FQ6LIST= <freqlist>
##$FQ7LIST= <freqlist>
##$FQ8LIST= <freqlist>
##$FRQLO3= 0
##$FRQLO3N= 0
##$FS= (0..7)
83 83 83 83 83 83 83 83
##$FTLPGN= 0
##$FW= 125000
##$FnILOOP= 0
##$FnMODE= 0
##$FnTYPE= 0
##$GPNAM= (0..31)
<sine.100> <sine.100> <sine.100> <sine.100> <sine.100> <sine.100> <sine.100>
<sine.100> <sine.100> <sine.100> <sine.100> <sine.100> <sine.100> <sine.100>
<sine.100> <sine.100> <sine.100> <sine.100> <sine.100> <sine.100> <sine.100>
<sine.100> <sine.100> <sine.100> <sine.100> <sine.100> <sine.100> <sine.100>
<sine.100> <sine.100> <sine.100> <sine.100>
##$GPX= (0..31)
0 0 0 0 0 0 0 0 0 0 0 0 0 0 0 0 0 0 0 0 0 0 0 0 0 0 0 0 0 0 0 0
##$GPY= (0..31)
0 0 0 0 0 0 0 0 0 0 0 0 0 0 0 0 0 0 0 0 0 0 0 0 0 0 0 0 0 0 0 0
##$GPZ= (0..31)
0 0 0 0 0 0 0 0 0 0 0 0 0 0 0 0 0 0 0 0 0 0 0 0 0 0 0 0 0 0 0 0
##$GRDPROG= <>
##$GRPDLY= -1
##$HDDUTY= 20
##$HDRATE= 20
##$HGAIN= (0..3)
0 0 0 0
##$HL1= 90
##$HL2= 90
##$HL3= 90
##$HL4= 90
##$HOLDER= 0
##$HPMOD= (0..7)
0 0 0 0 0 0 0 0
##$HPPRGN= 0
##$IN= (0..63)
0.001 0.001 0.001 0.001 0.001 0.001 0.001 0.001 0.001 0.001 0.001 0.001
0.001 0.001 0.001 0.001 0.001 0.001 0.001 0.001 0.001 0.001 0.001 0.001
0.001 0.001 0.001 0.001 0.001 0.001 0.001 0.001 0.001 0.001 0.001 0.001
0.001 0.001 0.001 0.001 0.001 0.001 0.001 0.001 0.001 0.001 0.001 0.001
0.001 0.001 0.001 0.001 0.001 0.001 0.001 0.001 0.001 0.001 0.001 0.001
0.001 0.001 0.001 0.001
##$INF= (0..7)
0 0 0 0 0 0 0 0
##$INP= (0..63)
0 0 0 0 0 0 0 0 0 0 0 0 0 0 0 0 0 0 0 0 0 0 0 0 0 0 0 0 0 0 0 0 0 0 0 0
0 0 0 0 0 0 0 0 0 0 0 0 0 0 0 0 0 0 0 0 0 0 0 0 0 0 0 0
##$INSTRUM= <spect>
##$INTEGFAC= (0..63)
0 0 0 0 0 0 0 0 0 0 0 0 0 0 0 0 0 0 0 0 0 0 0 0 0 0 0 0 0 0 0 0 0 0 0 0
0 0 0 0 0 0 0 0 0 0 0 0 0 0 0 0 0 0 0 0 0 0 0 0 0 0 0 0
##$L= (0..31)
1 1 1 1 1 1 1 1 1 1 1 1 1 1 1 1 1 1 1 1 1 1 1 1 1 1 1 1 1 1 1 1
##$LFILTER= 200
##$LGAIN= -5
##$LINPSTP= 0
##$LOCKED= no
##$LOCKFLD= 1138
##$LOCKGN= 111.199996948242
##$LOCKPOW= 0
##$LOCKPPM= 4.69999980926514
##$LOCNUC= <2H>
##$LOCPHAS= 28.4
##$LOCSHFT= yes
##$LOCSW= 0
##$LTIME= 0.200000002980232
##$MASR= 4200
##$MASRLST= <masrlst>
##$MULEXPNO= (0..15)
0 0 0 0 0 0 0 0 0 0 0 0 0 0 0 0
##$NBL= 1
##$NC= -2
##$NLOGCH= 1
##$NOVFLW= 0
##$NS= 128
##$NUC1= <1H>
##$NUC2= <off>
##$NUC3= <off>
##$NUC4= <off>
##$NUC5= <off>
##$NUC6= <off>
##$NUC7= <off>
##$NUC8= <off>
##$NUCLEUS= <off>
##$NUSLIST= <>
##$NusAMOUNT= 0
##$NusFPNZ= no
##$NusJSP= 0
##$NusSEED= 0
##$NusSPTYPE= 0
##$NusT2= 0
##$NusTD= 0
##$O1= 2823.3
##$O2= 0
##$O3= 0
##$O4= -100157399.329305
##$O5= -100160000
##$O6= -100160000
##$O7= -100160000
##$O8= -100160000
##$OVERFLW= 0
##$P= (0..63)
9 11 18 0 0 16.5 25 50 0 0 0 0 0 0 0 250000 1000 2500 0 2000 40 0 0 0 0
141.96 250000 9 2000 0 0 0 0 0 0 0 0 0 0 0 0 0 0 0 0 0 0 0 0 0 0 0 0 0
0 0 0 0 0 0 0 0 0 0
##$PACOIL= (0..15)
0 0 0 0 0 0 0 0 0 0 0 0 0 0 0 0
##$PAPS= 2
##$PARMODE= 0
##$PCPD= (0..9)
100 100 95 100 100 100 100 100 100 100
##$PEXSEL= (0..9)
1 1 1 1 1 1 1 1 1 1
##$PHCOR= (0..31)
0 0 0 0 0 0 0 0 0 0 0 0 0 0 0 0 0 0 0 0 0 0 0 0 0 0 0 0 0 0 0 0
##$PHLIST= <>
##$PHP= 1
##$PH_ref= 0
##$PL= (0..63)
120 0 120 120 120 120 120 120 120 56 8.87 23.96 120 120 120 120 120 120
0 20.92 0 120 60 120 120 120 120 23.96 120 120 120 3 120 120 120 120 120
120 120 120 120 120 120 120 120 120 120 120 120 120 120 120 120 120 120
120 120 120 120 120 120 120 120 120
##$PLSTEP= 0.1
##$PLSTRT= -6
##$PLW= (0..63)
-1 -1 -1 -1 -1 -1 -1 -1 -1 -1 -1 -1 -1 -1 -1 -1 -1 -1 -1 -1 -1 -1 -1 -1
-1 -1 -1 -1 -1 -1 -1 -1 -1 -1 -1 -1 -1 -1 -1 -1 -1 -1 -1 -1 -1 -1 -1 -1
-1 -1 -1 -1 -1 -1 -1 -1 -1 -1 -1 -1 -1 -1 -1 -1
##$PLWMAX= (0..7)
0 0 0 0 0 0 0 0
##$PQPHASE= 0
##$PQSCALE= 1
##$PR= 1
##$PRECHAN= (0..15)
5 5 5 2 5 5 5 5 5 5 5 5 5 5 5 5
##$PRGAIN= 0
##$PROBHD= <5 mm TXI 1H-13C-15N Z-GRD 8323/0194
>
##$PULPROG= <noesypr1d>
##$PW= 0
##$PYNM= <acqu.py>
##$ProjAngle= 0
##$QNP= 1
##$RD= 0
##$RECCHAN= (0..15)
-1 -1 -1 -1 -1 -1 -1 -1 -1 -1 -1 -1 -1 -1 -1 -1
##$RECPH= 0
##$RECPRE= (0..15)
-1 -1 -1 -1 -1 -1 -1 -1 -1 -1 -1 -1 -1 -1 -1 -1
##$RECPRFX= (0..15)
-1 -1 -1 -1 -1 -1 -1 -1 -1 -1 -1 -1 -1 -1 -1 -1
##$RECSEL= (0..15)
0 0 0 0 0 0 0 0 0 0 0 0 0 0 0 0
##$RG= 57
##$RO= 0
##$RSEL= (0..15)
0 2 0 0 0 0 0 0 0 0 0 0 0 0 0 0
##$S= (0..7)
83 83 83 83 83 83 83 83
##$SELREC= (0..9)
0 0 0 0 0 0 0 0 0 0
##$SFO1= 600.2928233
##$SFO2= 600.29
##$SFO3= 600.29
##$SFO4= 500.132600670695
##$SFO5= 500.13
##$SFO6= 500.13
##$SFO7= 500.13
##$SFO8= 500.13
##$SOLVENT= <H2O>
##$SOLVOLD= <off>
##$SP= (0..63)
1 120 120 0 0 0 120 0 58 58 58 58 58 58 58 0 150 150 150 150 150 150 150
150 150 150 150 150 150 150 150 150 120 120 120 120 120 120 120 120 120
120 120 120 120 120 120 120 120 120 120 120 120 120 120 120 120 120 120
120 120 120 120 120
##$SPECTR= 0
##$SPINCNT= 0
##$SPNAM= (0..63)
<gauss> <Gaus1.1000> <Gaus1.1000> <> <gauss> <gauss> <Gaus1.1000> <> <gauss>
<gauss> <gauss> <gauss> <gauss> <gauss> <gauss> <gauss> <gauss> <gauss>
<gauss> <gauss> <gauss> <gauss> <gauss> <gauss> <gauss> <gauss> <gauss>
<gauss> <gauss> <gauss> <gauss> <gauss> <> <> <> <> <> <> <> <> <> <> <>
<> <> <> <> <> <> <> <> <> <> <> <> <> <> <> <> <> <> <> <> <>
##$SPOAL= (0..63)
0.5 0.5 0.5 0.5 0.5 0.5 0.5 0.5 0.5 0.5 0.5 0.5 0.5 0.5 0.5 0.5 0.5 0.5
0.5 0.5 0.5 0.5 0.5 0.5 0.5 0.5 0.5 0.5 0.5 0.5 0.5 0.5 0.5 0.5 0.5 0.5
0.5 0.5 0.5 0.5 0.5 0.5 0.5 0.5 0.5 0.5 0.5 0.5 0.5 0.5 0.5 0.5 0.5 0.5
0.5 0.5 0.5 0.5 0.5 0.5 0.5 0.5 0.5 0.5
##$SPOFFS= (0..63)
0 0 0 0 0 0 0 0 0 0 0 0 0 0 0 0 0 0 0 0 0 0 0 0 0 0 0 0 0 0 0 0 0 0 0 0
0 0 0 0 0 0 0 0 0 0 0 0 0 0 0 0 0 0 0 0 0 0 0 0 0 0 0 0
##$SPPEX= (0..63)
0 0 0 0 0 0 0 0 0 0 0 0 0 0 0 0 0 0 0 0 0 0 0 0 0 0 0 0 0 0 0 0 0 0 0 0
0 0 0 0 0 0 0 0 0 0 0 0 0 0 0 0 0 0 0 0 0 0 0 0 0 0 0 0
##$SPW= (0..63)
0 0 0 0 0 0 0 0 0 0 0 0 0 0 0 0 0 0 0 0 0 0 0 0 0 0 0 0 0 0 0 0 0 0 0 0
0 0 0 0 0 0 0 0 0 0 0 0 0 0 0 0 0 0 0 0 0 0 0 0 0 0 0 0
##$SUBNAM= (0..9)
<""> <""> <""> <""> <""> <""> <""> <""> <""> <"">
##$SW= 20.022279632059
##$SWIBOX= (0..19)
0 0 3 3 0 0 0 0 0 0 0 0 0 0 0 0 0 0 0 0
##$SW_h= 12019.2307692308
##$SWfinal= 0
##$SigLockShift= 0
##$TD= 65536
##$TD0= 1
##$TD_INDIRECT= (0..7)
0 0 0 0 0 0 0 0
##$TDav= 0
##$TE= 299.9949
##$TE1= 300
##$TE2= 300
##$TE3= 300
##$TE4= 300
##$TEG= 300
##$TE_MAGNET= 300
##$TE_PIDX= 0
##$TE_STAB= (0..9)
0 0 0 0 0 0 0 0 0 0
##$TL= (0..7)
120 120 120 120 120 120 120 120
##$TOTROT= (0..63)
0 0 0 0 0 0 0 0 0 0 0 0 0 0 0 0 0 0 0 0 0 0 0 0 0 0 0 0 0 0 0 0 0 0 0 0
0 0 0 0 0 0 0 0 0 0 0 0 0 0 0 0 0 0 0 0 0 0 0 0 0 0 0 0
##$TUBE_TYPE= <>
##$USERA1= <SamTrack>
##$USERA2= <UNKNOWN>
##$USERA3= <UNKNOWN>
##$USERA4= <user>
##$USERA5= <user>
##$V9= 5
##$VALIDCODE= 0
##$VALIST= <valist>
##$VCLIST= <CCCCCCCCCCCCCCC>
##$VDLIST= <DDDDDDDDDDDDDDD>
##$VPLIST= <PPPPPPPPPPPPPPP>
##$VTLIST= <TTTTTTTTTTTTTTT>
##$WBST= 1024
##$WBSW= 20
##$XGAIN= (0..3)
0 0 0 0
##$XL= 0
##$YL= 0
##$YMAX_a= 376800
##$YMIN_a= -397079
##$ZGOPTNS= <>
##$ZL1= 120
##$ZL2= 120
##$ZL3= 120
##$ZL4= 120
##$ABSF1= 0
##$ABSF2= 0
##$ABSG= 0
##$ABSL= 0
##$ALPHA= 0
##$AQORDER= 0
##$ASSFAC= 0
##$ASSFACI= 0
##$ASSFACX= 0
##$ASSWID= 0
##$AUNMP= <proc_no>
##$AXLEFT= 0
##$AXNAME= <>
##$AXNUC= <off>
##$AXRIGHT= 0
##$AXTYPE= 0
##$AXUNIT= <>
##$AZFE= 0.1
##$AZFW= 0.1
##$BCFW= 0
##$BC_mod= 0
##$BYTORDP= 1
##$COROFFS= 0
##$CY= -3
##$DATMOD= 1
##$DC= 0
##$DFILT= <>
##$DTYPP= 0
##$ERETIC= no
##$F1P= 0
##$F2P= 0
##$FCOR= 0.5
##$FTSIZE= 32768
##$FT_mod= 6
##$GAMMA= 0
##$GB= 0
##$INTBC= 1
##$INTSCL= 1
##$ISEN= 128
##$LB= 0.3
##$LEV0= 0
##$LPBIN= 0
##$MAXI= 2000
##$MC2= 0
##$MEAN= 0
##$ME_mod= 0
##$MI= 0
##$MddCEXP= no
##$MddCT_SP= no
##$MddF180= no
##$MddLAMBDA= 0
##$MddMEMORY= 0
##$MddMERGE= 0
##$MddNCOMP= 0
##$MddNITER= 0
##$MddNOISE= 0
##$MddPHASE= 0
##$MddSEED= 0
##$MddSRSIZE= 0
##$Mdd_CsALG= 0
##$Mdd_CsLAMBDA= 0
##$Mdd_CsNITER= 0
##$Mdd_CsNORM= 0
##$Mdd_CsVE= yes
##$Mdd_CsZF= 0
##$Mdd_LrLAMBDA= 0
##$Mdd_LrNITER= 0
##$Mdd_LrRANK= 0
##$Mdd_LrZF= 0
##$Mdd_mod= 0
##$NCOEF= 0
##$NC_proc= -4
##$NLEV= 6
##$NOISF1= 0
##$NOISF2= 0
##$NSP= 0
##$NTH_PI= 0
##$NZP= 0
##$OFFSET= 14.8021
##$PC= 1
##$PHC0= 44.2703
##$PHC1= -22.3894
##$PH_mod= 1
##$PKNL= yes
##$PPARMOD= 0
##$PPDIAG= 0
##$PPIPTYP= 0
##$PPMPNUM= 2147483647
##$PPRESOL= 1
##$PSCAL= 4
##$PSIGN= 0
##$PYNMP= <proc.py>
##$RDF1= 0
##$RDF2= 0
##$RDFWHM= 0
##$RDINT= 0
##$RDPOS= 0
##$REVERSE= no
##$SF= 600.289951251159
##$SI= 32768
##$SIGF1= 0
##$SIGF2= 0
##$SINO= 400
##$SIOLD= 32768
##$SPECTYP= <>
##$SREF_mod= 1
##$SREGLST= <1H.H2O>
##$SSB= 0
##$STSI= 32768
##$STSR= 0
##$SW_p= 12019.2307692308
##$SYMM= 0
##$S_DEV= 0
##$TDeff= 65536
##$TDoff= 0
##$TI= <JL-noe1d H2O ubackup comet 20
>
##$TILT= no
##$TM1= 0
##$TM2= 0
##$TOPLEV= 0
##$USERP1= <user>
##$USERP2= <user>
##$USERP3= <user>
##$USERP4= <user>
##$USERP5= <user>
##$WDW= 1
##$XDIM= 32768
##$YMAX_p= 286166210
##$YMIN_p= -284896094
##$CURPLOT= <hplj8000>
##$CURPRIN= <peakfile>
##$DFORMAT= <normdp>
##$LAYOUT= <>
##$LFORMAT= <normlp>
##$PFORMAT= <normpl>
$$ End of Bruker specific parameters
$$ ---------------------------------
##NTUPLES= NMR SPECTRUM
##VAR_NAME=  FREQUENCY,     SPECTRUM/REAL,   SPECTRUM/IMAG
##SYMBOL=    X,             R,               I
##VAR_TYPE=  INDEPENDENT,   DEPENDENT,       DEPENDENT
##VAR_FORM=  AFFN,          ASDF,            ASDF
##VAR_DIM=   32768,         32768,           32768
##UNITS=     HZ,            ARBITRARY UNITS, ARBITRARY UNITS
##FACTOR=    0.366797814002405, 1,           1
##FIRST=     12018.8639714168, 490202,       710433
##LAST=      0,             472674,          -724320
##MIN=       0,             -284896094,      0
##MAX=       12018.8639714168, 286166210,    0
$$ Real data points
##PAGE= N=1
##DATA TABLE= (X++(R..R)), XYDATA
32767D90202K1793k7637O437j7380r903n070l729n8K2834J982k0134J6046j4097
32754D61286j586r441k4868Q593L7078m4703l4847K1070N6220l0131K1042J8144
32742D77857j7526j0247J3540J4659J2138l9185K0338j4774l5853J6226o112O206
32730D37267P84k9490J519M580n619k4524L0528J0864q057R900r839l662K4678
32717D38929J2333l2312k0596N147m7989K7801L1281j1961k6072l6612m5093J9765
32705C14621O7486j4066L3446K218j1232j9501J4476L3603K961k1503k3645l3653
32693C45211K0322J2541j3540P718l1244j193K9449J3717k5018K0794o9431L4062
32681C43388J1801j2591J8829k4243j5039J0555j2192l7110M4185J1139m0639
32670B98083M8616K3470l3311j4804J358j5833N65J8245N69n356k5311K0493m263
32657C12521k775n0120M5528k3109K4208p060l5900L2017J6690o489j6209L3187
32645C22489k4912o109k1566O069J3383j3105K1982l216M5495m1586M461j294
32633C02091m3P886N137o7832R798N566O823K0457k8551l6967J2055J9961Q998
32620B65379Q341m4013M0192m4500J9442J5683K7430k669l7388M9411q408k7754
32608B61146K5404n6011K4849J3599M526k2958J9781l8855O803M998J4602N899
32596B63783j4085m9684N8831l0300j694J6836N492k2742o5495L3914M6065J515
32584B42436k572l0823J8206J7272R253m7013J4298m3498N9555l8306r013k9494
32572A60301N7700l1108J8175j1109L957M1364p3187K4610J3650n473k3868L5903
32560B10915j1562L508L0951n798n610l0018r528j6908N3673m6777J9485K7253
32548B19584m3961j5585M5872o6861P583J8593J7032m2615L5925k8751K7294J7684
32536A91794n4408N3462k9083o580k012O4238K216j4339l1599J5703j0398o258
32524A72736j6130j2200L4277l7357O368n921J630m0630O36L8311K8040j9080
32512A50680l0797l6677Q467J7091R235m28j6387P4541O009n6439j9324J334O7025
32499A74330J6356q9350K4943J8205L198N554o056r972m3374Q752M6672k3896
32487A25362m1266J1364L2034K569k3299L894l9895k2427J3200K7955N8074n1401
32475I6164K3070J663K6165m5045O147L6898P108k6415k3136L1197k7920K512
32463A08408m3111K656o793k3875J3282L8898l4305j4028J7353K6780Q27D0661
32450D5993L5679j9819N9389k8185O0903p4819l8801N4301o148j7992O483K8748
32438A05732m4947K244K1288B0349e358D4331q311K1648P616R4559n1639l9096
32426F9108k096K018K5482l8258K3059M8648l3297q250L2191l9190N973K8979
32414A14367J2942E5237J0587N0407k4434m2339R075J522m630J4464K5040k8323
32402F6606j9599r964N6330l975l3802B6399M5796j2537L9256k8271l569k62K0007
32389H6819O310j2004O151J2758k772k0738j0827k6311R518j6398j0165J9797
32377D2138A9834M0126L3501K608l6369o869G74O0911j230J0708j2290j7826M8242
32364H9289l4991A0966N3875l611k3674q141L6196k8311O0452j5205L7336n8221
32352F1662l0165G944J0934L668L8907P2416m9558L137j6137K6313m1978L0296
32340H5942B6362L0238q281A3661K8054k0786M5743J13j4589J2588C516M3604
32328D7120L2072m450j1207R955K0921l8565B446a600A9774c3770D9758c1854
32315B7625p526b4327O090J728A9888K030o019L8368j6798A7808k846J81a9950
32301a0406A4618b2638G159a251j342c73C7277j5187b0465B7027n459K011O5733
32288H9312c808A1561K261L0535j8674b6462j2632G481c3871H245Q446a1010k4391
32275c5401d907k2896C2427A4194N945n30G215o71d47k1149C932g001A4116C949
32260E0957A0203d3289D013e191o579L334E1a7499j390g049C7502a7400B4499
32246A4780e1572j5829K1731B4034E440k375b8521a2472B4053e0491Q079b905
32233A3477j215C728i47p281A2441b574k1223a72D3618j7552m900J648c5305D2530
32218b9152n3724K3149b5009l6640B357N843K3813C129b1731g066C396K3879G93
32204B5470M053J0921b9968i143L67L74k3289A8589a5007B240c6043f025k1407
32191b7432a3227a661C3652n746a7409i56l7690C2181j596j3105K2958e629C2001
32177a0023o618d009C6359e613A5660K7169h264G106M728d1895i999k4436P686
32164b6749j9134I652M751e903k5845Q520A4909K6772j0082l713a8050n1085j3442
32151h2577K2140E246a7042A1852a1740j3063G772L7204b2575k0532O642a5712
32138B0730a9811F746B177K4273a713F846a2408A2831a1633k5566A0521J631Q409
32125B0561J263J6870j4170d1585K534a3384M774l7473F236e4208k6673a3160
32112b66C0855K8893e0468l2982b7001B8477f568A2396c055n830C0839G540b793
32098b1515i257l4587M790A5588g3942K4022l849k0635I816M0529L9774m2432
32086D7687k2748J3494j734M416a4711O94d539j6716Q261A9097f1386k392N361
32073e8417K6693L605n2111a944C9637I463M101c5642o242A4134a1047C8872j4214
32060B4658L7693i470j7906C471M5789h768A0199e7918E125b7809B8151b6615
32047c5243l7188I883j353J6441A0324b817m9977R381F005h639a764B6875f852
32033A669a0654k1443q475E718f244E353g467B6290a806D9525c708C8198J4220
32020E2418a6058k0394l7510a8632j2483j2257j9974b2991o287N344j3883J0054
32008b7763A534K6206a7904C7632k799d158B0625d312m330k3175l4695J2303b292
31994d2991a9826A1724a0063C893J5407b9565I663b0473r85A4783b2923F8409
31981B6662p831L4248j2203f270b251J24A6455R24k197k243d569F1061d6141b0547
31966a0496j4464B3838o390G859b9590m448C1584j3141e268D3945E672a4065p034
31953b1099G054a4348n253k5934a7075H468b0857P362B3271a9294B2430j270F250
31939g682D6775A6136c1801C512a4090j6538a5046A4433C819J5027o821K2258
31927C4283J7613k269k576A6311p897b5643C6785K4924k7044E533K321B241f5688
31913c1061o216j4481a9134B5514N341m701j1373a2058D6652A9713a0367D7186
31900D2985g698c364k7882a3435j9217A3646K5376C096a6319k6614e141B6390
31887c4508D281c817p350I744a7927O344j1735B0787o785b9199J2509e828m1576
31874d7404b2700B0872e328j7664C3108J363j5711C871b0249k4517d728D3217
31861B8606J8356D373L6966O314h4501K4400B0190L9030K2929h456j5003B0874
31848d3928K961j1344J8973l8036J8729k950f628A97Q57d0837e030A5151c2481
31834B9893a709C4068j2224a7347j4813k0785a0786k9017a5697r984e122n1257
31822e6379R379Q683k7411J0749L225L597K99K2134e639b769G470c497p163F5038
31807A5698J3314R306j2721c2322a1976B2981j333K5015J5230j0716d573n7476
31795f2049a5113B2611h0125K4145h245A0206a5947j252q229k731a2527p056j6128
31782c5711k8993K8610j6447D919e8428J6402K0576m535o894F0319B1959d9557
31769d6900n624R355c24n0436K0803M573j3822l0343k859k0893d6603K2260g237
31755g2374L4407B597J4369d919m502n947f128D365c0000G467B81N2296c18H201
31740E297a2728A2965L7220j8404K0332M959B5491M9256l6650K1060B8802b543
31727b0505j3150C8138j3381B684R387a7092j0399m4120j674c4160A9960K4608
31715D4568j2735g783C5290m636q328l140a3695e264B3711b772C57N3092m114
31702D9335J2916k8884L2873B4505K4470a4537b18E2098A032K2101q050m787c4322
31688g5250a5084C0985A1547b0242j423g146k7747q830A238K996O0077k8470e629
31674B3054K3113k361j9270e6286d924C1389k255e525m674j4864m98n020a4966
31660D581R814d2238n0163L5598A5327c9440p535d29l609B8952K6409B2693p083
31647A5610N214M0554k6095i073j9650J2852F8500C0394c4357k2900P611A1327
31634A9988g919n7051h896n884p243j2753p186b0443k1965J6975D8988A1926m473
31621G453b0988r724A4747J6189A0260N696k923d9963J9486c893j9289j021R092
31608a5111B5762L1989B0898a1513d248I582J6683a3021B4011G154b704B1191
31595B8153a0971G453J3669c3774a2256l7655i114l1319k9265A5185a3102C3757
31582B2462d6657K80l3606c6905p695P898k4421b3297m418G026L1860q789b1391
31568B0561N295a2880B1858c5915A5301c1248k0476l497N428H039M2208K272i046
31554i785k2382J0128a0542k908m2672L155C4077c3665I297c6570a1362J889J530
31541g943c903l539A9561L6660I112K4740L4445a17p134O38D6324K486c0547i900
31526A9513c5972j5812L252k978h624D725J4999I376b2132k5418f16B4038a5019
31512d1887E9610J3134a61l0743a1117b729j6450E2871j4093j2972A2094K1347
31500C3441J86q162j0196i270A7325b0344j7591L391J3300O605b736j302C3022
31486D0338q00j7885l804K8358d925B264c235k2682B4073i420I227K5890K3573
31473E8690B8235d912A9085K4151A0201m376N0761r168C742J4923J5199A277d3538
31459e6334K3323B3201d493g56A7577a1060k1515A6213f393k8388p783P958j0538
31446d5144J5973H303a7728E2071o356A1194m259k089b3974A867J0277d7594J5148
31433c2446A5028a9094D772L0486b8061J2525A202L6268E841e0998J8428D6960
31420D7277K264c3879a0356A7686B291N67L0071B644J9872a538C1281j4426n690
31407A1165J9707M741A2898J12055o2177A8715K9944B902L3022f021C6722o975
31395B9747b1147l475K925m7012a1629k781f713j4532A2052M098a1350l6072C184
31381e0057A369c0980j7494n638b0812A9433m603A811a237l0293J0559k1303f392
31367i339K278k4236A4043N8850l6292C480J0019m730J2632o829N162J6849m437
31354C2146J7989A1010A733f6876j292L500a2654j8623j8265J1232C9423r797
31342B9626p54E347p12J5811g794C9699O465A1194a9002m6026J2873g118k5289
31329c2407J42h175m9513J2916f627K564m7780J0255j0777K2712O818A7072o236
31316A0836d6686C8568b9239i022A569P7634e856n2430l6392b0243l9676L021
31304e6898a0982c948G2946a4181l377B4881b1644J545g223l4178j2240C836M7968
31291E1804D984d7658J5733j3419m099A4593A674b0520K052A3626J0446k067c2869
31277E6321l645j6987f737q889m117j89C6913p664e571D7939D062b2265D3280
31263B5103E533b9036A9689p301R569c4775m095j1679b1123B8274A2027a0441
31250C0807j5019o053N634c7564e869b177m0575b958D1828b2412A9536K9789b3895
31236E7126M861F972a097j6672j734k5931a6164j2021c395l4l244B9038n504a0858
31221b316F28M1242P07a3784l7555a4817r16N664L504l7254J7422N347j6142M903
31207c2289a3185l2958b0638k5504J6675D66J732R887J9780a9798H633K3928C635
31193A5584F968g362K469H3576D945c971l3849l19A0516J0034d70j7190b706a266
31178B8814b0899M631E0778K3193A0894K317d5094d433A1313L51b6928I581K4166
31165C3747P014d7749B5346r485a5885J833A0619c6225j4788b4685J608l5157
31153e8234d443q338o428f865m5430H257J6055a4308B2050f138a429m5692k908
31140e0029K4132A5277e9475a066l5259r175K0558c640A6128F109d2904j949J4800
31127c0053a5014l3597R288d059E218b0127M711E1092j8414f5744b8543O092A3146
31113d3914Q133H463N7980k3640o65B407a1367n3819A3839h740J605m7241O598
31100d7778a683q755A7722K8783l986A4416K5829j1450A3693J1947r160O13b870
31086a0240I697b9059C2912B63Q817K7310a9595A6517K572l570N0322F042L1327
31073C7369d6235a1524A5018d27l0929j1354J7856i01C6089c412C15K3775C137
31059a9536B964e5667q802b7781Q903d133p921m4675K5548m6666a3557F239N9071
31046F5310g916B3058a6609f641j6448P915r403O856A3395f6931F126e7377m75
31033e7852C894d7094a827j0900q736j3919l486J4816J612B7496c2229k3281K1735
31020c3775a1556k7816C0341D066R399b3429A1749m744L2085a4929D2115A8123
31007c145m759j6634b399B8603R133N185A3043B101J4495g688n0087b4553J26
30994b4427B3900B099M3821J6060c6137b972j2589c83n457D6277O478B587F29
30980D5883J5605J3367G586A567a6254o778h672A8307c024A7261K2006q492A1234
30966G009J1861K0113a8390H942J0840H561b7269A5128e838B3991J2877i751A6400
30952F7280K0833B1977J0489j3761K4880Q823H368b3602J1714B2609J2537A7202
30939A7561R697D288d6744a3110k010e2j0494j8254p939b56I545K7507h524A0443
30924D5585j4152j4266M5913B0770b2349B7601N181q934p10c447C3448b909G495
30910g595p336j7395B2575a6016n0705K6082j59k9678J3487J860J6492Q98p716
30897d5455K2322r025B643J9499J8560e2227E684M5693D583a3511j170J626B2606
30883d5031a2337q191f735k1091D688P644L1790j1219a1889B4995e3464h393E3811
30869b1516L257M403p013j2986B8387H38a4854d725A2912g747A8298D758P0665
30856G5423f528G901J4765d935l5734a7293A6425n597a070m9796l901b7367j5449
30843d2816J3259j6466k6734N574L0995J1968j100B026b6950a784j1607p081A5836
30829c0845k0821A6066b6783l1860J2286j4668L959A2388K3530j7034b7509a3739
30816D9173H86K8694j4652J0884B814C63O2400a0486l1079a3231P06j7102L777
30803b5850B7329N97J2512j0219k33N975J7330B1661H984a8329D996K8012j3510
30790A9498a6131j9315C0121b1626c668A3869k689J5239k80c436j5419j915E7651
30776D2827A6943E013d515A0021N1819d050B4189r807K9891r374o921b8022A1380
30762a9530B4977F181c5051a3608k7989j0812A8037L7531O418K1280I707k687
30750G020M2047b894A02700n976B5901J1633L845M2327k4500j9491A4033a5698
30737i99k567j0877r032b762B2611n396a6151B3346j0450M0254j8294j5702L4680
30724E3834b8073l04B650b9404b760H466b365l2497P586m1988b3709k392Q666
30711a7435C6634e433q558c329E087N8772k4465h415m5191n56E125M3290A3985
30697a2216d535k4207j5182l4113D072d1129B3355O098a2493i26l0762K269B071
30683E0308A1729I8J9159J8747a7325B6866a7378B7674F868J8431J8542g96A8910
30669D6717o810g2401j8889c0398M410m8054L1533a6224A8399m056J5054g566
30656C109K7761h741r346j826a370m4729d513j2721l5017a0745o9270b2842c494
30642c3214n5127J1610J0848K4331K0138E8386b758C9677G735l123b1100a07l4694
30629c4801B0305l080d6815M353j2362J6601D8487a7022A3324J320Q985a5158
30616D203b7077C3905M972i758j8500n7A0537a7998k4242C8746c9355d592j1006
30603a5598a091A2321J324J9749g944B8956K5097k2716C598b2521I078e4942G951
30589B0765D387a2016a909b98l5342b557B138M5393E114c1116a4962O270k3430
30576c2122a3237I915c9220J4784O981d61k3477D8294j7495j2478d052J711R33
30563a408A0524K4946A0260L104g19A6197b6808k798m368d466D3943d479n8635
30550f3114h475n1151O793B411P1672B6129c2258j3148o492I487c217o5462M193
30537f4486a6632A2046k127K304j241P864J9256p72L811e364A3649J3903d0489
30523G309A648J5103B806c2361a2344A8673M3398b0890k0969J7384b04r875B9212
30509e294a235C0625o053j0222D008K0052l684R749a0463B423b3206C119a8716
30495A6134a1515A4182c326A8013c4077a0025A7078E466b8948J4465A2638O394
30483A9032e798A5284b6152k172J0965m075D3176b1285Q316b31B0300e1449B2826
30469a2307I436a6610D563J0284K0721j63f1883K5654D0627o535k966i24G0619
30455c87l4343A129a8361B3679b3119M23C1376G416c7525Q246G84L5338a351n0375
30441e1726K3838A8094j780J0296b0131d996E0525k2806j2560P526K4553j4475
30429C2763a2949o898b858l8590I498a5560M367A3551a0291m2847J9648A2458
30416B512N451K0885J9222b3954k2679N603C626K4631k734i403A3415f715A4139
30402B5638k703o169K7898A7340G342J2584o045L6939k0263a0288e36B112N6853
30389E8965b1132D5610a4896j3649M405B3302c4027a6630m4486b654A851J2394
30377A4245a0471m641B6784M5473k3617j3535a5153o221l676m2373K4671P621
30365c5131J0490N636m0302K8075g57A4256J8884P932H702K327b738B1401L314
30352B4715K2619i727m8736c884E0831j9933Q027g739A658b4164E7727B7803O629
30339C4432A4391b581k8692A7790K5310a4590C0025j0430d1313k3729J7964b1180
30326a912F013K1257b1781e952l0331P336M145r398a1784o33A4826i40G627K0247
30312B7874b9585f880A4861b6897J73K695k2187J9321j2208a8522k681j040j3277
30299c5520e102l4968J35a546j53E3077k0873h427j9989A4510a1876n8089b6174
30285a3181d440G380a6418O309C0828a9801m614F786c4101L892j6759N412D779
30271d2785c870r925B848M0623g139r786B918K3388b4035k0055A0276J9586j4273
30258A5589a7274C1199m475N5594l0487J1450k0354f3303b6922C9289A7414K779
30246B0193A441N370N6042A2701a5119k3415j9888a0297B8137j3614o384d483
30233c9881O341a6519A5799b0323b594A7980J2839j2490b2725J186m0345E27L0702
30220C1229J4770h596B4980j442N89p019J6610a7514j6837J3729e096k2247a1874
30206g936B16a6029P936F453Hb6969A8494c4689j2912e535B864j119J2023K7108
30192D0876b1904E2463A5790r90o171L2446j1227K0948f4135b6089A1546f891
30179B3958N011b2364A6649L509L649b589C1238a3906j7585J0017A7760a4956
30166A0861N875c3355m611A9745b915A9132dj6056B7014E480K758J2464d1617
30152E9031A612a3789k225I503a814k4721h304C055b2123B056K6169C608f7472
30138b7582J2472j4378C3412A0545c1521J5360j455m0735C3237I485Q112i385
30125a6527a823o0554A4395K750b8504J1481A2024J0787P054o32G249f122E3823
30111C0141o796i547m4000a0155l103C0991f332n2535a1524j9971I523Od176n0773
30097e4949D166Q673a3679H990J6215A2253d1514F84L816e666B859a0594A3914
30083F3570B3535e2158B540d0279J8359A8887A201e290k6980A7799p098a4858
30070e4376Q725b2347I069K7422j5158m172f1344A5343b7985H729c8547h62k474
30057c336k6082l3150b3458J1304a915A4452Q901J8732N145P3594E0522B2924
30044A873a4851A9068c060A3170J4975K2175C910d3387B0456K4131j2718f6193
30031d7270b1273A8148B653b9499l3584b9651E9232a3645C7566c418C724e1700
30018D781j023c1689j566A3907Q770H328q94Q666L765c0544a1776B1236n91a6109
30003D0030j4500A123a3283D3980C284C08c1687m5677c7636J5864r23B5960J8074
29990D4034j9688b7723D7930a4118m2490k4030c3513B1682a8005B88c5126B8514
29977C539N6345b211m0872a095l1176N895C5217G546K5673A2887R397a9367B280
29963A0700i968b489j1214A3163a2298C0219J1798A1252P240N394J6895J348b2211
29949D1386D334a788B3532a4144C1004c6199L891B4078l238M695K8580j0623a5002
29935b6396B0879p800d438k2434k8966J5272R22l087p213C3270A0333B470c3306
29921e5491Q497A8653L5076k6483b998q858B1722A687b9295j9777L138K557F169
29907A6861O4861B3393M0755B0081b5142C762a1837B3321M4762a3737o537B8958
29894c8820L020j3841a7836G143Q847J6559E052c0546F578c017E3646F90c4804
29880G014K9666c2408C4110b3173j5956a0608k6572B8370A0308R802J3253N444
29868C8807F331c2773a4020D741b0329G881d6829a7775I122J2412L7a0196a388
29854a3543B8352a998n7942b7855k4394J6170f982l2960a8239m0194K0821k2464
29842f0076j1799c4106c416p735d584F2555B8261M0680A9826M7387k2642j6707
29830B7864d5763b1391r590j1710D1684j1091d0936m1372K8387J1390Q027g800
29817A2242O5327a0668l5077h161b988R86B7115J7703a3393k753A7172d612r013
29804a3625M439G497K6984p021I927d4530C7796j2155Q728K049F421J3283d2870
29790c4754G16J8672c918A9267J3995A4400b4089e806r559q97k0925i560d35D1876
29775C895c0233o4669M4727a7727B035K102P221J86j74G35b8078j7963J9604j6743
29761d3180a2956p352q726a1985l613o8751e788m8131A2154j640a5756l5349a7754
29747e842m2310A8698a7695a827j8724B4743a0148j6680A005b8953C6362e547
29734b4433A5074J0848d831G919P661D690N177j117e6382h928D252J4488a5783
29720b3371h796C8510j1161J4579A9045O440e187j7425C937r56c8104J3889B0121
29706D2993K5914J0736j5464B8741H320R78c6767L621C571c7183a7987A9864a1330
29692b0433A4294Q271b8856A5487E970J8014n187b6570l3652b1846h744k8140
29680c6884i188D0582c3633o314A8945c5911l2471i460j5744D1534c1735C6867
29667H5895j8216k1787A4838a6568l9532q503R295b642A3484m849d196A8733L8315
29654E7048F212L4893A1659b1793C637f656A0913J7936O133J0852C143N060e3833
29640f2497m758Q663K4202a1567l1247L770e857I703a8372D1582l56L0962l4966
29627C7222A390K0807c6426C3736M1b8012B3160K5405B372g400m963A4351b7538
29613a5635L401k4770D696a6729j5389A5208a9163Q603B25i1393d4672r267a3663
29599a8037f205C0743A2034c1926b870r518B9895a2538q480o815N441q337J2249
29586a8480H79J5556a9279e953k1709l5380F896J1483d4473K1033j1005B348c3400
29572g82n187p58m440n1419H825a5748r307e93A7619M3078j4359A3732b0131l1783
29558e1914a9154B0463B767I49e27D12d1135A806f536k5267P766j9102a4788m2106
29544e6894K6243C8469a0613j487e302o683l8398A6403m244k576M222e9263b0772
29530C2195J6474B1664E096L4760a5930j4991k1045a2613D1302j3329A2453K9225
29518D1678K2206j5480d325j8619L371g288A1072C194K1896A326K5414A0561b8751
29504A3221e0662a1226k3511l128d037I189a6295A8915b5777e42k3661a0327l808
29491a4135l1464Q895B04J529K0664J8756M125a1692C0169b2953Q074g370j261
29478h631J973G0109B7043a841j7420m232a0908j3620k9601m242c169F956b6045
29464d932j6647l8403H053L589h617n3508j7555D896e706H228J7045e526B0040
29450C8085c888j6519j3337D0068a5126k8543M323A6637Q05j502J6549A3945K3466
29437C7411A0331L2039j5867h672A1254O0175l4495a4658l9095j2090c0290B3603
29424B9224A3010m454N1960A7612D902J7907j468H35f5621c0965A5311b452A6959
29410B470L1184B841O4028j1162B5029r418L43R886I871i493m8614a8108L923
29397a4185c431A0714J1459b2233N697A8645a1707D339L8681O893j546l420B2193
29383a2441k1171C6036H379c2778j7126a6121K802j109j4809J2765E382h473D525
29369B0460O0105B1165K193a0462A0186P956J1419M3703C4851g45D1086A8492
29356E9972q525j5367n869i534C1284M7372L9673a18k8214B8555b9751O558r015
29343c2208O917j4539k1435L0074A4978m304a5606G540b537A9617f3962L0189
29331c3773a2531j4555I279J0453D055L299A937a2035G006K2676J3193J8641J3252
29318G4768C3992M002j7919o539c0388K012J0449a901l034i9l0706a2789G588
29304c2547a3688m8037j7876J8992g663C2941K0541n890i657j282k3053k3852
29292e7844J9098B954b9324N043i240A0973a7338F873L3964b3090B8673J2488
29280D1161G926A934M613c6378e566G2732B6811c905G3295B4109K406n455C769
29266E0414f438B5961J2539K1617k8482J0786B1139i694A6191h970q329B3637
29253b1352Q578K100j4688B7082L6611k9045j5662m828J4537L2737Q420B2317
29240A5341E552A140K0193L9732k6987G639e752k730A3312F484b8366D1689a825
29226B5797P677J8254A9204a2791j7813a2783A816J7181n944b765D3784b1312
29213d1106a4852k2038H518J9639J6779j9098q050a6487J473l5387k3925J9569
29201e4757K0262a7178o389H665g5872J6059A9014a8128m068A6926a8396H36f413
29187F657k786g353I155b8026a130j2269n7530N260H794a244F234i439n2262a1443
29172A234c661p756k978E998L8533B1058F382c453E447c782B0750D209d7975b3802
29157A0727c7180J3351r791l3787C3848N235h816M16I358i581N95p095A6426n251
29143A1175a9725D7063q771k292A1332a1071I815a242A2246b11C3823l319K2809
29130E3313k2455K1767A6255J7753j5388L2870A0516bo5900g975n0843a1269N232
29117f037m2760D5047f579j005I919g30C6386a7338F839A731J6290K0185J4151
29104E2357H210N3054B3287p976J1939A79R501l880k278K568b4422p243C0485
29090A6098J3232r704d657O2H150b3877H701K0274a3780k8469k763L4o042j772
29076e2792g567B1658o630D293g086a735D408c9291C9647A3855c0335a989A5334
29062F0104l0023O756A4164D186M4296a8474B5437B195J9603D701b0214m6502
29050f6716k9681c5306E8642f935A0654a0582C897N475A004J7821d834K003n8473
29037f1304A441K0242c9579J5307a0209B3596j946M435d852j0483D990Q58f011
29023C00K6690L5305j3862B4132A0408c7946i778A7508N473a885k4398n1455J0792
29010f6946L1266I799e9843P636J4747J4860j3565j0725A5172J7176b1990B0175
28997C2060A3880L6118E174K7773M217F284e5757b0831c523A014f82C4837j4752
28984B0085b1870A6748a889l7095a7827d099C8271L399p947l787N0026o452D973
28970f7519D417a0251b748A5768o675a5095J186C8318M668a3068p679C7863l104
28957C4759m267f056E291c0810Q954B2743I444e0093E115M3476b612B9155F832
28943c85o0k462H497l851a9129D499K8976J09L0042B1183K0559j9120D089a4213
28928b3997J0396k984L583B2135c5273a0810B2910A680O017C565d1816A7171J7921
28915C5092K3519G860b9218N290g018F8771a036l1486a4406C697A288f716l11
28902g027A7845B7K5939j2164L8656a3907k2524F436J07107j6468A8427a1562
28889B639A086M7462B3521a5719m835D5538A6199F829K6887B825g93F5528G780
28875A3232a0663j539B3951c5166N990J3744B3768k282M5437j6133h155A6993
28862b3063j4056M490d37p242m9783K2069l9406a3800O261o268n6951j1688a7602
28848g853M1D496b2656j8959B3910O041j2291d2233O988l3745B0270e5734b1730
28834B3120C530d4101l2527i517j0857a735C3681r382O335J5597A7699c3465a1081
28820c1445R017E7418B8166b2493p0644b7301A3088J2089m091c3891b377r465
28808a1842b979m160k751l8382L858B2075E395b6318A5821a8739I290J1232M2809
28795F3331E359O297a2960B1787H103a4278A3828E40a8919h510k423d159o002
28782a0161H803b0429B1600J5527A2183i812B0681b3533m5292J1622b6590K154
28770b4436A9941K1019N8036B2265L6115a5181A6837K6292o139b4953O843l0721
28758d8831k2512c4927k5345B6931l53J3402O352l479K0564F283g400G867L441
28745A1308J5980J0799a5587N732A2919i008j431A541c284o3967L1541C7172J3238
28732E0410o399e48q043B3448G422b0163k4376b105j9640j6121A0316K6719A5991
28718a0921B0709J0327a4191O083H22a6218n9889b5183G0598C4033L2396B3204
28705F136K4919A4825F000a9213g585l7977k8263l2546a8523A5097m649h3001
28692d3298J1642j4621H477b471A9615M1209A4385h051j9813o490n971e270m34
28679e704p090M592m283B0160b1395g544r25D8303j8590M870a9259j897j558h420
28664a534B0637K5546K5880A4508h52A3402M16K0372j3893d0347k3420k398B6604
28650b7757A7775b0571M950A0938b296l2029A1432c4625J2935o323j6137A294
28637b0884b822l2892B5662g343A45N665Q291m948j273a9007c365B1964D648R668
28623A4316J7049J5001j7904A0026e078B2032M816K6968A4711J6391b0699C248
28610A2938b1699m9793K8563p253p514b2104d926r107B9973j2254j293c5896L321
28597c2575o505Q129b067k7135I128a011A7210a8089m736D5882l508d946D237
28583C1572E408c9776J9097h772B2493E549e3558i255k2874A0055L1710A2568
28570H456M3742n547i750M544j296D3479K6009P994l5446e967Q23A9631a4517
28556f5639L1685A7330J7258H479f6250B023b1698p033j9490J8860A107J2219
28544A3326e908p386m4684A9941n636N570M1934K1046B0644M8026c257n144B1377
28530e749k561k6419A8344h468m9477a4661K867p49j6232R41A4461a2176F219
28516c097B1571H156M2724m593d654E36b069j9568Q637q292A1109a7564k587I518
28501C3516c6677a8121A528J5063b4472K169k8446m605a5389j3454F919c0113
28488h3877b1395h978n6453K6897J5453B3578m80J612A1437a1955F346e3692K1938
28475c1754F195a6996p371P11i271A7713J9271b1061l121E936M4799H265K0108
28462B8373A0605O7878G555K6554a6025A4123J3977J5978H478B582i085l398A2364
28448A7865c3110J2477E1092M5968A5447J6174r546j950J8747i041D1246a5471
28435d4900A9700D804k344O1677A1800a9823P787A9740b1623g098C289K4627J7330
28422D5246N4695m7220B2653L7428k3418i933A5923L0765I064N4893J4307k8400
28410D9864a9170P553l676j8191J1182A4310m055J1865m423c8576D796M084L945
28397A2825N375p011n416J2008a4789A021K7766E28M3551j6493P160j6183a937
28383C6266A6333J1490c379o5537b2399m972m555o1910b5025O60H094c827J654
28370b173G482f392G035L4597J6424a2894L018A6051J9099J5784A4501a7725Q589
28357i136d081o705H276K4731j3137c0307k5435i792H293b2579E39A99c8155d377
28342b5311l0660J0017B233e808a005B75b3342l6447K0892c189m055k1826k0213
28329d9283A1599a726k6531j9810j1491J5110E727c409A12c3789J4317c914D414
28315H5631k7485k4034b961I624J0766b2581A4238j198K3846b9248k9916K0928
28303c8236h01l675B7370d409k9937B3293a1886k4777j3588k6129P448A5781F491
28289C253J4991g556B009c3555A0671a430A3132k934c3791r582a1003o568j5162
28276c2733G494K3259H603a5847G41e1429C87a4727A6112C8J195i649k1040G430
28261d604C6079j6246c536m767B0263J5456a501k1880C6484A6060l375a8993g760
28247A5949J4113b3635K613J0494H074L1547G405a509j9513n32C868a6994N560
28234a1434C1316d2269j0405J1204a7455k0155J0806c420j6586c341j2094j3864
28222b9299C0739n578L4626F966a7323C0231l822h1C6777j0142H31g871n1640
28209e9511l87a4717K339k3528j3607P808k970j9737b6088l0799b311m712k2535
28196b9558q1640L3692c1613m3504a7702A9472c503F3873k355b5273O271H207
28183c3425Q715B5318K3525f267k9520P743l0032b5470A4423O840J0299A0042
28170F9054j1790B1124K5053B140J1610K381n56K5090Q545j7968A4646J510J5030
28157C1186Q359A061K4107Q628J8423r661j4935b3992b519m832A1928J5902J4077
28144D1907j0091A470b8117M004h758G297b3567J0938B5733a7573G084b0992k4803
28131d5795B149K7817m513M4157k7279A2184n46n665e2381K1981j3775l569a6798
28117b38D6236M784M2127m0811c234A1989J6680A3555J209f134k6517J2208g879
28103a5272D04J2655O601M7225c7606B849a1451j82A5782N3726B5225i667M092
28090e575j6322J0152e044B6479M480A5340N371a1133m0254j0763m661k4900c5797
28076d2982B0426b6114n846l5414f813C2272d526j8480N343j5909l4478a3799
28063D1200c2203j9780h858h14j6823A087K7337r355M238o001e4055C6683J1032
28050D7715k3762n629a5867k8484h399l0493A3759A132c8031A8385J0631A1440
28037a8906A5219a7299e589k3986l3354f92j0366C2583j5903J89p738J1536b2855
28023a4669k1134g899j966A3890d7877l93a2640H402l607a7613j544g344B0996
28009b8818Q349B8881R576A3674J2778a5469j602m990A029P4534J414H103a2075
27995D6961B3196J5797N422q202j7163C506A124N429M6435P869k4504A2239M9614
27982F1853A4712a6295B9950A1985M4932k2482e816B8196h753k286D065hj9666
27969a9674B9762a5606k5119I058e681A5028e66j8795m4833c1697Q94L654c180
27955A8242k638a0047D7812a0862C4149I834a1190h46F527M500N5J6531J6108
27942D3721M7803l4581A4934D152K2823d487j0061D6303l034A9227b8522G45J7174
27929A7919j321b1457m0280H937g505F76J7479g805j7318A1949J2515j1402N6171
27916F9233Q972B861O0250B3837L938R78j0207g561B4997A0351d9356j4489c363
27902B3347J0160d3770E666J04b4861L61L061A391J4091a1731j1319g163r6J982
27888e277B2375J2376A3826a7492A0074a1618D229a1251M077m043A8072L8162
27876E6234k3884g812C8625A1992a689j4829B2219p608b612l7430a3461G7448
27863G3227b0342L696k1894a4685e836B1552a5612A4174L9690a8103C1646h226
27850C8046d2803D5474d1130A1683e441a301l143C2286b4652j3883J0811m105
27838c1829g915A6901M073m032N061q279C373c66B4359I108J6139e9380e096j8844
27824b3940n8060Q665K0098a2554L388C9164b7024a2992B7329j528b0832o8252
27812h9084a5403A6435K3921H986k392b5072l3616K8481J3073B5085A2262L8142
27800E0404D19O3158B3741A1280a427l4275J5104C9541H921b0638k095M1m4353
27787f7045J4281l095q490A4738A233J2658b0068n5511g009Q82l8084k8278b3294
27773a5794H797a9894h447n5337a9940n8583A6737a5206k9754a995B0875C346
27760e473j685j7069A6471Q850d329b02k0089B670a8980A1645O8123j8531k0479
27747D0758d9404b3263B7868j2444a348B2070K3255E26J498M4483j5110j1587
27735A9810j435c5655l854P490J0859D5M265a0111A8687d6598j6425K1216a1209
27721A282N604p07K9166j0847r928L271K550D420K4160m133Q028o468J0981A7388
27706B7516J029L3472k2139J585l490a1870k9344J6771B154K0927N0277j9299
27694E4059j4769J3431Q56k1991F855K272P645K0463d7784g249m6301C902b4689
27680b0337C0225b3175j2530J0195j2019k5548a9962C3088D043b9461C4948r774
27668B5174j1817Q032e559k561n910D3037b8007k200m519a2009l7425a8978B0389
27654F180a337o6231B0299r257a3986d566A6520P53D689c2526f39E9656B6747
27640B0576q160c403q654L783F547M7471K2475k2406j7928H937B621j006c213
27626a7365A8108n13n472I03a626k0097A0568L6270a2134M882A7140d156A5979
27612D4766B0162P49J2540b9388J3035f669o000l1185b0687i084C2160o197J8384
27599D4347E800b4993h814k9646k0707P770K05k2197N021a039k1864j5832L024
27586c5711b969k885a104l693m5443d244B1910E400d302R45j6505I918K7884j3713
27572B4089G80d1902P35J0787a1440A6920f6306a3921A8305j574a7703C4397A496
27558C1092j1864H01b8139J4051j1273k143a1729A6684c3933C1407K8110I980
27545B9827K909n889a5506C2753j1866G627a2200j3662B3493c5416J496r92B542
27531C7319C016N5226p936E281f361E4399j2684e554A7824J858C520K918O149
27518A2587K2703A1307O867a245D167a4899K508B5533c1080D7840k2856j1474
27506A3510k427a8675k888j0892k4210a0041I806B746N2668a7571k6161K0870
27494b2862a0533J259k7840M27Q632l174R818I32L3568J5190j5184r235H938a1679
27479d55E6290a1062A7605H086O441M6307A9910e850m6902k995E799f8854b2340
27465D4947b4233m8105C0215c3440d102A502M4454m43L2484K8059G756c8616g887
27451B9179a9667m367p061R670j7061j2139J9608a0675A4723a304C493b9328A8806
27437c5253j3838e49k5723P731d016j0812k2174j3075j1884f661j0445m447k6105
27424d7658C8738j3100D788a5022C1581a644j2355B4393i396j8171k0556J982
27412d6141F5536A5982R663j426J5534A8732K8756d4506J5867E778b6456B445
27399b737F5480a1717m6596R283J6734d034a399A0836K4457A5366c4157a0014
27386C2129k948A1983l481c5588a7001k9339J6394j8409n474b4466g34A2263a317
27372a9015N105F413b2664N405l4058J0085a7946J259n2233c2536F186L4592j1196
27359B9582q099b9873P22a4397C27L2411a5450b929j3367C9839j7269D631L4966
27346C9597d703E0267g69k2549c797j996n4066K6198J1239a0246l3565J3673B1184
27332a749A4623a0464G636J279c0860a1725F463a3654k3612A9597O043a3596j0009
27319b3605F290e46m2111a77A0351d3181C110J3080F828K0187b6413E1443f26
27305E1107b7116F872a4641C5212L3616J0975A9807J6829A1068C852M5215d2331
27292H917l113b4319a0846E26d845l4204J4997A0342M3310j5614j3134L3869a6669
27278b7296f641D951c7336p639A1137N0232B9686e7829a7672B3604d2524a6152
27265A2450a5497d984j0954A2406a2876j166C7015j4838c553B2037a1879q592
27253b0471O803k374I668K0435h062B9874A2675K5473a96k7499k4518b3659O976
27240a6683j6660F063K4327A3710c5627B7010c2541a4847H32b6534P258f042l7557
27227d3599D1253p303d9039C609J9381L9264A0575b9341L690m688N732n5237b5654
27213a0971B4792d2849q843p526r9J0513n726d02j3709j2280K711B1682e5006
27199g5399L4513k537j7676a4769A8213b3071j5631A1492a7571j3288C830M6004
27187D9834b0857j398A7841K0935G610K0413f3277K3156A3306k019O074J4415
27175C1776d889R59C7848b3224m340l092A893K8254d9558D30g070c237j436H335
27160A5589b5471f546C6730N650b2802l923a216r707A7443i512C2137j1017q701
27147A2419e333m338c990C3960A4753d7350e453A3377o521N0139k3297E211a391
27133H765K7991j4375J8051F54J6600p235d9088A8339C011a5468F392b2860l2448
27120e5308J182b1832E3848k6590m02k661c8701D6310r237a1086A1304K0799J1718
27107D3821B0419J6433j8401L1480B2195b2523l266J0394j6321k1994a6564k1321
27095c7885B6440a2608A911K4612q856J2324a1981n3936b1440j6590E590a1136
27082D0684l373d8556h891a129n7138b0906L806k4904A2932O80K975F517b8483
27068G342L4841i990a005j214k4637D0778O89L4714j0752l1787a034E2676k1856
27055C0820n814a9638M491C9569j1504b6532C8768b1303D829J0762j983K4474
27043C8082j3304d2531D0294n417j4954a6591k615p375a0596j6873e848p756O640
27030f964r04A4022N540n740b1303E7108Q86B3953d0149J3418j558d144D1506
27016B432K960J2258o976h60q3698O751c311F9790M5543l2895l2693c7688i016
27002d6386b1343H8k5M572d2917K535j4156i25A6191k636M558P563h996k186e118
26986D790c4005n3665h162L117j6166k524a152F781N499b3175k9080q178K9451
26973c0982A2294C966d091J012A6283E384M3635A6782D064K6131a0149j8845O212
26960b2782Q934k0664a3301A1065f274k3260A8160O2700A9365F332J6455l185
26948A9602J1240A0077K7373b4336p473m855B67J5256b9119F1401a0769E5555
26935C0705A3762C03f107B876h977L30K527k7855r132b216A1292O066b5657c41
26920B4643G883O608e0823j6528B3785b2341e990K49j3071b29A2189B285R702
26907A1987B413b7072o015o675h515A7204A660L3345C791c7100J0522a14n64m2285
26893d2963J2687k0203a7810I45d7011K3412j1515J110j6126b1283j2553B5123
26880B2259A177b139k2359m7403D294h516n054B2686K077K462A302L5205q22J6104
26866E1789A3687A739K7253K5954a3647J830j9127a1939L30a606l837j3648B0217
26852A7651J9599B834K8656a7629f409A9957b6124B0999J176N547L458I210b852
26838a8124B1102h016A3128o0b1678N232B6991h410A2628K331P083M8823k2003
26825D8862A2780E799c5503l1513K6317J6022A2255L6011k2096A1945d6573k5265
26813g1838l468L7360h968P96D1392j2217M2460A6680C657g124n0725h354A1289
26799C1127d6543K0824C5701a607q028F2986a3510D292e4922j202J7870e756D5857
26785A3710N392L882B350e00j9461A8406L7428B6446f495F575K7448a3789j3967
26772b7756a0766a152o045C8481j2858H769O209J6725G10L257a5826P037C3565
26758F0518A2635c4286J2513f165E838a6868I565D601K9818a7885p304A4714b577
26744E136b2882C7612L073K9833j9335j3950G752a8229j7462A8655o009L770G845
26730b0420I994b2688l2396O641F259j682a0376B6738h174n4988b4851A8647C865
26716a2076A0744N80J3974b1604F323K1232M681K1812a1915m6631c285I640c5178
26702B1442c7002N277A6624d0915e740A325J8451P874b5197k0319E275K1254j0959
26689A5570n6A431L3004a9372l8259j549K1900N971b284k4044a354C2490a7850
26675h4k300m3006J0880D185e8333h781H019h692l883l9445A486h077k7727r425
26661d5229J3674r495b0433A4118b4282B0385i934j7884A28a9656H721a1663N756
26648e907A9400a5409B8588p214Q987l686f022r513I701J1160K421j0403l67b7142
26633a4137k6234D2683c4840A7078H411a6231N999j8480a659l7297J0710B1324
26620B4763a2711I904K4343a1180r334l1907c724C2240K5658o610c0041Q850E6932
26606C4430j0103H435a6262D4484H99R505J2251e151l5688I037D99d7221j1256
26593e8477a1298m427m544D165a708j083k827k820B3757g695B7469A2960J2290
26580B5250p653c0813E157a7081C8076K2307F664d0282k5405g233r382o341H752
26566B6419a8754F7760C1320N1567B4011a3610m5141b8531B776M580f1936J0088
26554e1848B2747J1275Q174j6946n009M0373B6588B629R533K105Q007J0271R575
26541D2120b530n7645k236O222l699i495k6349J6355i706q218a245C6822F13R365
26527I978b2230B3253K927K0813a7197r210k075J1841E4134j9988H993K4703q037
26514B5659E084L321b7146L327l8996D300d391B4730c0277g763H51e4517b0686
26500a0063K860B5655J5824q091A2687b9097l717J4941D848c0956B878K6950L0671
26487F0499a0185l644j1350g274l411c138B2974E67P095a0433k0184C1700o593
26474B5107b7327J3139k3220D1028a4993m761k7030j5782A8053c7698a0956C9872
26461A1521b606A4362j157K4334a9571N466a378k2144c586m6238b4757a830n4930
26448e6760K3671J4029A5680G332d60j7788B2510K3675K0423C3002J3831D266
26435c570k1309m686G98b186B3340a3912C1189a6113j5714a992k8476J279P429
26422b1760l3175b1787P119j058j2907L575k7737J5150P099C468c824j1598E22
26408d6223f405b915k7847e723A4526M7767k7572G571k152c493A9595G4e6052
26394B9638g025B1197a3400B735J956J409J3511M5392A2966b5621A5239K2190
26382C7429j4426e3424a7306C1070j2670J543e6747b587j5396n385A0704a5635
26369d3541a0217A751M1449A0109a0457a37l7247n374D6775h367K534A3136M730
26356A7866e1782j8248L4140K816J5938j6595A1893a4104C6679j0751A2660K428
26344A5088o264d1895a9134m818j6339J5846a070l0394B4017b9571k6289i161
26331B1561L4376B5026a9398E507b0620f172j3746m24A6641K8196A1120K6081
26319C7201r10c2740m184c881j8820J633c67E8725A2173a1910j2873D2799j2561
26306C0238b6020j3866b21C2762b8704J1442B4006a9806l0746a4660j0146a1155
26293c5451J5566I56L175J0460J0302A896a7319B128c8056J8365A8039o892a9668
26279c5743a6722n304P574l3087A0480O8265k8353L2470A2584b5186c0C3836b1153
26265a5216m520E111b1989l5785J3765k062J4640l3680b1073k405k8567K1989
26253c0056l3818O876j374b5668r431J7301O81K136j5553j9618A4890a6965n5955
26240g2920Q450b0159a285r006A9039j587L075c9755B181f183J051B3786B095
26226i988J277A1315K2014P806A1393b7009E237b0713j6065j5560P229k8398J6153
26213e7354E097M4030b2713b865A9179a0938C5597L0921B4701F747K1422j2058
26201A6111a5553G341e136B9994n314c9576J788D1944J3642p753A1861b0037P249
26188a2788a76k1974C509b0580P513D2467K592G603e698I689g520L303q630D2055
26173C2660j0328L8631J8019l8499A6583M071c7704D4608a8163H39a0248r544
26161a9792G45N6142j4286H899O96a4425A1071N599P347O10K4993F726c9405k8574
26147f7979b9768F2828j6990c0290q238L787D368K0908i069k6872o1234J311b8775
26133a6612j4951C1036M404j794A4612K5755j2853L456c7871A437b0465A8867
26120B348N0739l705C36b2610n6226H265N209Q280b0359b011B2624A0408a0121
26106e2725j907J5659e659q875N0o1153J031c5124f493A989a4918j4962H091i691
26091b1469l9481h63B5407f2757A486L181L0116B477b160B3030l893k830N2643
26078F8950d561B4852F815d909k3348B2581i335B8727q87m372a1454j231F324
26064d1254A8484N5284a390o2578J9563H893c1759N179m334m319F900f033l2942
26051c8975o598A6251E218J5670L2969k0071b851D2379l763b305j8157j6517a0625
26037a3113k4551j9963J2665J576h273k9988J3944a466j0846r8j5532B037I74
26023f3825A8401O2829B1941N3461I01c1334i373E8097j8007l687m664k770o770
26010B2199d0926P615a5174B2484O163J4665A6009N116M0077A7448e6257A2131
25997D4379k0139a8553A3305J3645b1121b598A628K3829K6579A4566d9140a8252
25984a9585i462C3552L7059b7456q080J3740k2776J42J9455P816H3146N1B0258
25970A1301J8283P268j5153m785N3452A6519L6265J6097j6251J4486A243c2302
25957c1674a5418C6527J0472j3924o693j1588P344c1900E2345B5691c1899j5327
25945d7226a7383j653B549e818k0535a0873j6125J2422C804J0867h795L348k3864
25932b9311a2906A0289d5601J4708a1174A9057H363J2687J4982b9691J2189m840
25920b2342A089c57B0383r377R1h71n734A4426O0572b5808C498a7884g160n1889
25906e9049e493A320J384f289r096o3777a5404j1507j1366J3821C1341D702a176
25892A1817P041c1738C3429R755b5915C568P928a8484C1059H896J3792A0612e894
25878A6794J6228f0578K0696a1981e634j9752N362A7903e652l6009J6647c985
25865B1898D433a7175E8079k0209Q478D651J0937K858l266b0612A078J2468c6496
25851A7539a8814m395A3494b8438C4931P019c2790p37R121A90K0741D662h156
25837D2333A2024C614J1746h465c296m785l123m55o147k9478b0804A1212O593
25824A7805b000k0220I786a4548P034k183j339r453j3544C3942a2920A9653e6111
25810a791r922A5576O7471A2802d729A6165N087a1579Q86C2219a3288B8708g508
25796b4473A2983e100j456l1642D8860j0221a5185r303n066N818B3549M4280K787
25783G0616l4289A6667J7794A5588b2930H202g310k7817i794l0742B3565J08m525
25770A9148M458q159e7414g049m926C479R872b2246j2094c337j9220D4194r66
25757D3228K5502C2548a8161Q574c522m7214i336k9050B1258r312m161c2536k14
25744c2750j2857a6753l848k8896c187m959m3042a8842G57J6193g706Q89E7075
25730C6684G631d8556a2908D2352A7726N169H366K6754J1263L185A0526a874j3995
25717a5869j101j3765b433B5149J0598J549j1964a5717k5154a3704a08p6883A3957
25703A8265c0432j2164b1155f094C1598a613k6963r678d074B7392q049H440e4673
25689B0838b766q029C3567R11K879A5235c7697P877l5314K6175a4690B3540b109
25675C577a7826C9107j0877g84G790K6068j3930b4518f416D5647Q928M413j7371
25662D1617F386K546b824L07n3749a9694P360C7718A5419b1574l4058j1579c2313
25648a4144j3657C066P4217C379L0213M6995k8167a286A7390n654J3789g181H028
25634c0028C0741r618L3670A2266O1299q924G812h945C740a3729j7934B8948L7107
25621F6055C1515L1458j9410M165A6662A887a1919j6182D4238N63r773P0l780
25608C1318b7917r829J5835r727l0890K945g629B707e370j7421j2409l9523g926
25594i444B2121D905J7126F588L5139e749B0991h126l396A0242J3622A1796d3152
25580d2674J3496A9500J044b8719j3487f53I764b0891Q750l1460b1448P989J353
25567a2106n198k5951B0316h359N76J786j7323f09j9358A6617c4699O07B3042
25553D9645K9372B3543a4453C210a7384B3237k385a4785H669R040L342C751a1878
25539b2298A503L0562C734b2064A8010K1713j0822j1153O127b884E352K5045L8929
25526F9326b0952A7567K2940j3122b7088j3558B9656m251c600C668e645B6568
25513B5899g118A4905F183c572I006a4085a460l19j4943k5132A961e1662J2512
25500c9150O99B6425L0781e328A6504Q0732B1294N840l245e835A2606L3065J9253
25487F4924B4299b0236A6619m906D568J3500b1397l5635A8790G282b0471b219
25474a7270A0351b3677k0324B2562c4144F99M0586a7073n251A2561c8437e55D0332
25460D4826A7692c3215G459O2494a9856L191c225E803L6754I074b0328B8263O868
25447C5131f751D0445R242B4748L1358F748L841R312K3197g073B5089J8339j080
25434D2348k683b4538P889A8909L721I451K1612J1147J5158A7617g200b403l5870
25421c8273E3028c119o0627l193P233K3502a4634A1145c108B4653j1697c1066
25408B8572o571I008J9075a6930k1139A3868e3589e454j8393G97c7115A9427d5087
25394b9258E080K4972b8414f197A7855f675D4356a7144B080K2786c824j950k496
25381h270C0629A3998L1201d779C1051K0185B4669d72n3442H374b0117C1546a8522
25367b6697C899M2697B1713B710L5323j4856a3533b653k4942B2704j814B852a1013
25353B3674a7707j203f579f19C3397G10a9591O562k428h4j3637b676j8897h908
25338F26M67L7817D21d327D119g072l4962j32O212A3133d766j2782c600k5128
25324b8728J2511G778K1141J710a722I345a7172C0685a1114r97E130J3063g069
25310a1784M936A9315a3573A6548b4630M091B992i652n529O998j4626g313H643
25296b6287l5405K3684k950b673A9017D670d7923a2865b3A6443J4926A4256c7544
25282a2963F242K0394i545D907b0287f029k7630k5481K4680P920a0255B4678J6240
25269D0918a8856A0570a093l0881a4362l4034a2982A4090a067A1614b6737j5119
25257d1856B1826J8943J7126d850j8079Q935A9312k442K2466L5457A9713O200
25245B5913L2974j8720A4536e65B6641L284J8328C57J2893G58O759C025b2146
25231a4294l0516k331C2885A1433e506B1703J7468m016A1456b6109l1848A439
25218h094l0711k7025d488B094N434b6885a43B4950J6559b929r853A9598L5050
25205E4648J2408B4041c077A2135g214k0477M830a760o801B2475g53n674m5477
25192e1904L246J9690B0608K0690Q777E286K168J1809L837M6574A0258J7528A2133
25178f753o046a449k8910m8022c7850d992J145H503J2962r80J6413f9019b4654
25164c6614K674G749b8115B4125I720a358k7665a1660a682j8822p9915M3696A94
25150B540b2904j328r5910i081A333b8341q06k918h257b630k7253D065K0292J5719
25136D0076C796J3306b0087D444d760I179c9749a1454m572O763B5254A706c4879
25122c3274k8236K3971h379C4592D605N1136A7758f906q21G065Q61c8716J3859
25109b4857J2348d176l1804J1680D772b4337n4594A8597J8011p409J0610A7640
25096b6718L854j6680R263k8831A304a5109j0923j1780B4654b1794l6805P558
25084e1041K2699P568j9618g456F299j302J7733J9703j4912a3320j0811A8385
25071h689F555J1622K7886b486k5720j1725a7520A1067i098n5232J0791B511a8160
25057b7204o028j0382C1816j3038a6015m020A8425e1483a0756l5269K2460J0386
25045a3179B039a1189B3376G461i260j7283Q325G037g238A986L0177J1936A5359
25031e906D1905B0895O678k467b665D041J3202a7755j4933a3913n9118K4213B655
25017a7879C6610A3520d500E9042B1833b1367o286l4619B0052E735e4318G68a058
25003b4856Q679N125j5487Q0B489h639o3581J7298b2165B1734A0031k200j888
24990E943i344k7542A6867E220b915B3546f116M07r79m80m8412B20d784C022J5563
24975A8585P701a0869j8034D327d1003b316D1994c7726l9935L4885a748D802b3887
24961C0982j4124b2080B296L0379K2779A5142a935A7524J0872d776a66B541c0035
24947c3348L058j7771F679K0582J5289a1190l0192i82p048B0095b1357i572A5150
24933E006c392B9897i567A3375l783k064C668J6983K291r103B527J2303D988a9093
24918E5892A6030L5292a705j3390F254O968d8551A4306K8262c6164J0434J1048
24906a4682E0212L0704h341o3407i284b969l0174R170b864A4733L4791a3514K179
24893a1335q081H117M1758k922G739i893D069f6049g108H297K026K8861j6265
24880B2919I987a2897B871J1906a326B6305o576D734L1570E434J6550L969K5200
24867E1153k0608J4688n292j2814R398p972a2202k7667M47f071I794b9887B339
24853B6340a533G914K5457D508b2947A1791G45c3045b333I037K309J3504A568
24839I453b9780Q888a016C8473A2625g013k8168C0630D880b1388O119r604C0379
24825c458k7185l7724b9152R99A5443A91e1772O95h248A9050E149c8676g78B8479
24810a454m50H550b0907B7370I298d8994J1025J4371B3681k962a3259q028j2027
24797c3314k4659a622q527B3732q083i085l682K393F514a8204g047C1049A2224
24783d1865k5791R916f846C369M7326A4520a4098j6516a2821A437J6247B338J2022
24770A4360b6886N062B389c47J8E102a9380d903k0277l8055O918F651c0140C5799
24755a311j1411R73m8234C1884c3898c52B0041c5105J6516A8047H604L1883d266
24741C185J4887b001A2125c3172i777j7777D3988A6595F96a6870B0704a3323n7853
24728g1176J1466A9638H935L4049b4902H062a3800E90J0632N08Q683K1663j0269
24715C1807r51A2796a2997A390L9889o752J4308n920I109e473o047k627m455l7001
24701e5603C7508b7611N362A7684F678g4710L2254I89a30A9452L2043a2932C5564
24687F3126A8918K853k953r198N9070C038J9807J2793A4669g674l640k0448Q167
24674b3595e536k0748j5030J5925D561K0052n458a8631F751P289J8659a9867B3543
24660E055d27o097B4276O97e9516A961N464N88d0474a1436D1035l162J6435Q209
24646F2517L601a1643l665a8D14a1337A723Q118b3991P03A607b4716d072A388
24631D6895k81I819e046j2915D2322K1112B7470b5178g042q277O542A2763K9107
24618D1870G019J6672J3165B543L0401h362k8149B8790e412o8487c4177a429l3948
24605c5377O290I87L978b6577b897k866A8442Q02J3490J3995l385m734p08a1075
24590E2525B0430q926a0379a855j324A9582K297J4821a2151j1703A1974J2447
24578B4421E031b8279A8191K775a6183J172A5228b8284a1376k6970O888E1558
24565F1823C0289d6726j9051a9947r842j9588a5252O991C2716A1028D745R793
24553A4538F401N0411N816B1707d0153M833B6137C138L9997A4761g69A9336q298
24540A1038M180e0719A0736K9016R00A9133j51L5046A541N005M9232b418A7423
24526A8034O626J1860c7094B406N012B661J4984C805M6295A4315M3434A9992N680
24513B5672O3059B5373K5512A400a1596l377M018C2865L9495C0557e35B70K7860
24500B8130n796a5183N940C2539Q345A4339J6549r68K7331P759a8838B5215K2996
24487D8211k3434K996K1653r391J1252k4220J0473j4631N0437p214L7016N811
24475A08959j1710J7675n6429N1019k6577k4316o149L5784j8504C395J3449J6591
24463C3435j2877M6735C13J183J3144J8105A4879a535j414B7836L6976B8249h04
24449d159l065m3187A8788c3567a1087b598B7156J8284k0207A0134a9597R562
24437a0035C6918b035A1297k188J3746b3006B2669R583I334g779B5005E641L1198
24424C6839j4032O0725l1034k4946K452q790K2164K4378A8545K7561K494B1779
24411a1798G5346a7596n044A9071O562n96k428M019J5386A3603J0567O573a9545
24397B2392d567A1941b4223A637L782N0352m74j8675J9686k2333H662J7924K4494
24384E1080j2171K1611A2153b8290A9580L5750a7223j0043c109C674L2299E062
24371C3391J5377J8050A6439a2601q92A3802L0259A5893J0250G786M0437A8511
24358b878D4178j5323r206a5E3845l800a431l1726C6664J0485k1410A1947c1191
24344a4238C8542J5751p989a7238A5285m020K4143j2094M753d815j8793j772l7781
24331f3161a5870N626k0573k5039h260K717H931h6845L8013J8474m0328b2648
24318A8028e2945a9612G788Q245K0578d5438A17d3094A5784D635a4000e291A8347
24304g588q354P261o0958B8269b619G169P658F007O5473A830M0538A6594J9169
24291C5763b4604A93O21a7028k2247r906k4926J4846j780j291C6795M090A4976
24277A1528N80c481D5281q421A292b8795A736b4736e724A7002p656c454m5439
24264d8893D566P0971B8380J2998C153b0087e851j1526D628c1047D6250G892k038
24251E854d2827B8966b5716C6525N0242k5371B8115d798A8463J0478I602i15k2296
24238b3211i706i53m0661N585E02b0549m9199f943l687k2637g905A0682M1285
24225E1967d37D2255m197K1911B7295f1047J7668D84L965e616l5871a6382d61
24211C2131e75o157l2116A7632n105O864q932J0045R593a4472B62J3618L3757
24198D7637k1923f3053J5136N467a2045I373c0201C831b5137a0735j4025G414
24185B6886K4381B2539j471L775J7049R456A2932K9212j6765c4739B2011K1853
24173D3864H765O919L0093c9118O576r193J1081A1077a960A9867K7371D867L5487
24160D0354C893K1111c619C0718K3425P87k3270K4542p632c3678a5235o200k87
24147b1722C9064b3451A0664L7360p397j3765A0018a5101k333B6066l44J2371
24135C8093e548B1277r492d8862j9216L2658J5330L54N428e993r854C6631P309
24122D3940E675M526K1201el9276k6484G770d1549N648a0812k3310a5113C9695
24108B5261A1192b0748h490m9939J9683A2933J2659M7059A0793J1862d2973C76
24095A0959c3369j4350A488C19J3342K5826C697K4624d91G949f0847b4354d184
24081D5763a843F370M6966n308A1038b0203m3300a1133a3B7490F496a6924A8701
24067A0995b8423D669J1503K1315M658A0718D854a572j0328A7504a6702J480l2225
24054d7447B9864L77I647b5067j4236C715L4687r208d758j4066B110K6346J3897
24041D2353J6980K251A1063M926a7015K634A8608c5l4499O178B5404j878f905
24027A121L1023H894L7584A1740E691L7371e680j5074j1343E400c391j5615N202
24014a3804n2613j1683a6514B5844c1701k677B4642a0233B0271L3213A7019a0847
24001a4152A1615a0277j5317A7065i22J85D1281A6207d475A0131M963C81K5229
23988B5610J29K3655a061A2318o030K2693M2707k3535c5780c45C0257A1701J7503
23975B9204a5261j2914d154l0875B6620J9840N05O01p054A6056O986n169K4150
23962D2023j4087J3738Q770J9203C333K0120L8790C0444J2460H350f818B5960
23949B2343b6485B4264c8595j8642O73b4159B5379o994K4689C92N602a3724l600
23936a7324N626j3681D080J9730E319g043E2311A1467b5325e378m210C0161C768
23922F8205a7783J44D0288b0111B5460a7320A4858l437c931A4835a9842C4391
23909C1146A1402m045b8462A7670J0913A3842b1315C7879o468e4935B0771J8151
23897C8922j763A873K4278l462c0323A341J483b1329m7397J1397p71J7277O544
23884c4279k0798k91g971C3629b212B2253M273j478D574b4418b850D863k268L9240
23870D1835A6754J7030a6694G728L7534j8195j1318f979C3941a8012A1233d5169
23857e8407a310A0235a2451j8178n0487b0641C3169j895I334b8582K151f18B9507
23843B3779h772j6126F7820j1534A4647a916D6452A3868l122P821b8994l0311
23831e9305C3153J0693K3626B4693P271K8449j6404j5447F756K2441J5792b9196
23818a8631H357O766L8878d89l321C5491k894E958K5957F430a4869C646b5596
23804A7070L8929l414B5065P379c2664G415e5961a1711E1671c5581O624e09k5575
23791b6084m03j047L041O810l3086J9131d998l565j0174F895b3373A0863K6606
23778C7469j8003g922k6589a3045C433L9070q014J217p822J9125b4253m848F8246
23764F4035E533J6031N5173a800B8522M2356M2794E4026A2833a7119F180M579
23752A0759f250k4155I556J3366a1092A4326M6958K5852A899J3260M8866M2475
23740A06500A8331O6470O949J1848P175M6035O0071k9211N2431L3670k5143K537
23728B51163k4688L026K191q1379E5629o106J366K4764l3253m572I357a5191C5131
23714E8713K6968A0416a8928A655e403A7635M0145B6186o879J0854C495a245l3287
23701c4532a6861a759B0643L107J851g924j4360A3521a8754B7155I529l746K8618
23688C4401K6250C716b9869B0573N4988l549A4634a9311A1496f838q121l4472
23676d9431A6197a9085C48b1813C5674A4573B923J6211M3769k4544O807L752j4376
23663C4542A0171L0354j0428M4916k3085j0547C65N310K9864J2824k2274J426
23651B7515j0877J0094A1728j529J6393j409J4665H557N6058M916c1346a5538
23638C560P5455l1353A183L3494J8097E438r4J5972L7618B2119P293a2537M754
23625g783q399o4350B9528f314r01A4646J3933L1947j5258b7518e471n521H289
23611A3122D28L5537A198a0936D7138P167k5925J8768K0365I660J1915e429K440
23598b989D1248J9918B3333p556M6580k0685r815e334G386N3711j6482c9561C5215
23584C8148b3135J621F126b4150N194P414k6096n484A90L3743c0508f505q61k8305
23570c5671D5552a9962j5325f86j7888C8168P845N430A3881a0475L650D3195B174
23556a7127j9086J7638C9232J39K0224a3684B8644o101K797A0515J0954P649J6571
23543D5689o221c7607a0259a342k7504I17b463G3113r638a7136l8613b0299C7181
23529H701K5159J4716b6856k6473K6016A0841J952L850M815D31d87o1860p896
23516g0243a6951j9540H265H64c1938i414l3068e159C4065b5705m13A093K5144
23503B6237E210K9934P1652n2232l300j3994d5304b2095I875K1530j0289J7079
23491C8195L0086L2110j4758J9556m856J06254Q4359r352Q7038N5059P1108Q8474
23479E83273L1812N4040j14300o1673j3459o2122q5346o9716j22820j7003M964
23468A27650l9705B6947J754a584B9598j032H991K5491a4993M506C4997j4876
23456B0121M0301j9630L0044k9130A8154O556E85K1996J912c3118E084a5278j7662
23443c2940k368D4681j5347i050A0861R81a3503l0986D390A984K2158M627e538
23429F03a519j1189A5177n00K166a1266L43A3360K0044j2237c424k4189B0257
23415I724K0506b4757C8350J5997B2297A0107i577B924L0830N792A3663c9195
23402E413B219P213M1097C865L4128p197A2128M3630e1894k6458a8886A1562b78
23388C6177c0973B6213j1073L2612r653q390c75F439B611K6300a0930k3317C97
23374C8390E964J1161f0859A6713a077D2876a1698d597r200B5141j2190n381a1081
23360d189k072B3239f438l0209J3691m410D9812J23A2688b8009B8507k084h311
23346g532m2789N591P848J6761G75L1306c7312A512O104J2006E620d3938J7623
23333b6315B6012R430j6216l424a451D0453d640A8901a4735B7962b3489j7614
23321d1103n105b876B7043e53A8496L5503M089K0232Q944B683M4305j3547p108
23308B6333r245a5312j4397K980r569J0759p571A3774J9712J0267k0389d8338
23295h21A9091J623d2914D048K7975j0113c1003A0911Q065r296j186B444J3603
23282A6047o587L6731J7974b4004k7733K4545C4281M9656A7012a2392j3300k2037
23270d7729A0773O916C524i583C1669j3860l100b2599A553a0829B306K6459G474
23256A3154o536e649j4134j9453J109B1950G150d9967D6242K6289C2877r762K6995
23243E0110A9802K770L630C172M903J1175b9204C8217n210j2839J6714K2508P2643
23230A32033l1655M7118L5879n3834j0044M474j7536m7377K8192K7317n0610J6952
23218H0909B9869L0642j5239J8051N7608j4800L1365J219j4120Q100P911j6607
23206A23999m8395q151K6137B1383j0227M6778B3823J9696b597A4154J353g234
23193A3777K1699j3666L5387l387A9196N9437L790k6272A9315e749I854M9761
23181E9615e964E7380D395Q7833l2916L3163D4068a4670m3865C6426L1426m535
23169F3317A3234J0285d1927K969A1459e0715b280B2843j0757B842J924J8970
23157B3736n388D763j397M000a835k2805A5252L8542K0447B6387P0131l0312K7614
23144I3820D3013K9353l4344N914O133j2691J7938k0286J6608j6718r543c111
23131a501m136E5832k765M0896N074J2558r34j9103L6077r333k555J6608j1497
23118A20858K7445k6591m0975J2158l7382A556K9841R701j8741L1277J5650k1911
23106D7373r611K8080p92k136J6010k688M9061N1584k1923k0816l1111R23m090
23093I9864D3232K7450l48m357q631j6452N092j2987p575K2707E390j764B18d730
23078a8996N510F825g166j9023C3501A5013M6628j3981J6743A6877g177a736r686
23065a1422j4928j3288h0k0260o237B9464C217i079D0619A9746A223L2350j3917
23052A9656D765a1787k9933r691A2062A355d5566a6871A6505J635m64L7351M4927
23039I9954L8401k4102M4271O6834l2370Q5043N2008J5168j8658m7860m1566k1665
23027B15458J0352l513p7980j7191j4580j7432p392K4279r345O0594M3719Q2572
23015B89541K7637Q7709O3612O2803J08634O1936k1952k1530k8784p8077j7639
23004E33890r2843j10834p7649m5477m8938P835K5080M1961J9699Q4038K2822
22993C59584M7980k2745m186n374j24551j8376l2413p8908k5429K1486l4715l9567
22981D2786c2091C6742a0538k5628l3150j0020b8420a3369j2412G924K496J1745
22969B2165L813g267l5269K0151a278B9908b7090q03c614A9095m738C950c193
22955B3470k736D075e882C861c565C7845A3016o223C158h960N82c863k3375g860
22940C7865f421a042C4113D16M9653k1322I757q80e518B0260B608b9669A3522
22926C294a0961n209j1941A6747M8311M682P335k7066F851b5085E319A479a1790
22912f8117a5839E2712k1291i33k2789D8269j5492Q791J7909N1017k0119r016
22900H1359C5357b7229h776B3048J0339K1036M4083k2831B880c8401C0791G915
22887C8229E997d74n363G607d889C7517M1657l1050j1577r305O2021n686q312
22874G5265q178A4458C591K7059o611l550l557h056e77A6705M5160n883k2546
22861C3436K4466R663L550J5420l0719k7264D750b2294B7196a3021D1517c960
22848b8273g624A9127M7410k4606K7518C2372e1661f792F0654P07A6353a173l164
22835d337C8739a2957B7742J8200r154B715h870E8464J3838B5289M2299L1774
[...]
3462a185139j5072K1348J6885j421N068k5287O0103j5161l3986L659P3302p3442
3450a169143n117r835k7593J1623N911K170K473L7308l5517K2647m0797J6279
3438a189591k1017j521K6397J4289J3354o245J8137j5967q011q486n719P084J0176
3425a167120J5338l2101O9501n2528l9442O2870m825m2870k433n436k8716O9105
3413a158657j3924m924K3868R41N762k9703J6877j6075J8660k243j2534K8592
3401a143360J2932l7560l143Q093k1452L0514l0986J9822L3584l1358l7757K2579
3389a178092l9379J04845o6401M968K7186k1644m2353K4680j9636P50N6222O753
3377a142101k4638o367P0246l2225o9446j7841K3132j0265Q7340j2540k8843J2959
3365a150589j3650J2210k6727L2162J947l257l9448k506L0594L5983l3036M3795
3353a112522m000l8165m5992J0337K4628j5853J9592r076M478R178l4648l655
3341a195698K9961p459k1370K51L3932K7028N2118q0034n3105L8042J0548r303
3329a175089M142k1268M7965K4438K7999n6711J398M5037l1900l6769K8570J7896
3317a124292j2625m7175k756M376K3648K8542k8574l2215l1773M1761K5515J0588
3305a144980k0406k01k2691J4220J9623r721k780J6923K1684j1421l9326k0228
3293a199304L0539N230K9351n465l0897j4138j2854m191K569M7282O824k8963
3281a174017J2349K2330R212k6350R248O4410k3239N709l3998m1530j2349k8919
3269a217144L6346j6698j4040Q189L640J5570J4959J0591J8541m6276M6133l251
3257a143440M1346o1059M0813K0669m091l7473l5244L288j7528M29L8454l102
3245a156938J9819J0400J7158l8000l358j3033K1814o0638N3840k536k1605L4964
3233a138113L285k9024K4825K6800o6365M1096l3984K2230J7622L7387m1743n0995
3221a186979L7396q509M6302r574o8628l458L6820R993k6080k3878L925n9677
3209a252347j6625O8931K8714l7460L1351L5037J347L122k3018k279o800j0237
3197a180264L5059j9805K7501K600K8883l0502k8159L0133o331j1352q6744K0109
3185a218872M2029K2455r000K4324m5632o659K2594J1869K4303L2032k7649n924
3173a134130k4002O6057m9842n8400J6853N3235j3062q277L0453j2887k5388L6541
3161a122849p589J0724j6546J0164L1383k4860j8644j3762j6239L9464N065o2527
3149a186216J4213N0533K8859m5913J5346L3718n1223r47O378n8570L6077k588
3137a160333K0708k9232O437l934P0257O235j6508j6221L209k4491O545J4084
3125a123244m6614K8382J9753k2126q2985N0266M9175J7190L1897n7313N477m8462
3113a178604J1406J0994m6715L3516M7047o1127M0570K4993j1339m9053M4755
3102a133557k5238M2035k4058K4631n2048M984N1253k8506l0464M9258l7958J2504
3090a147164m0525K5771N222l121J758K4892j2299P2855l5113J4268p3360Q707
3078a158109K1099J2195J5405k7309J5750K0583j0213j4373l8168M2723N671k9862
3066a144608K8233k1201K3761J9096k4389K089n08l1810O170P83n7174N6776m050
3053a146832J872K3208q5932L6359K3024P4998j5915k2249m0192l3828J03939
3042a081548n9294K3134l752O851J3794J0638M2841p0468l4685j555K4042K9626
3030a100376o4464K4260J8404k1114N0446J4776j9672l6651k3613j9250M3357
3019a133897K5110n7315K6848m805p439N2989K769n7210M4137k7028J2155l5125
3007a158811J4481l5798Q8200L949m972k8323j7503L2732k5052Q45k5014l60L8211
2994a117415j3947j185l6655K0121J6425M2090N014j3545j9513k3872J6228K8002
2982a098252q0108Q7507j908j1417j1759r00l1228J3998O840K1230L1993m2947
2970a116951j3771J7647o7273R4849n0202k4482J6221J0107K8383m0586J015m1805
2958a186848J8138M5182K188J6973o8771L7625K0002n0284L2083j18L5878k1253
2946a119205o716j1271K7616m5767J8350K3484m774n537n1761M3236L7709k5075
2934a119711K4908n6126j2122M7981K9168j7785k9532L0219j7486k0978J1600
2923a129864k225p6363N1030N6632p4419O1444o261k7743P80J852R359K8181o0862
2910a168459K5399R281K1097q697J977N9740q0935L5682J1990J7863k1260m8667
2898a144989j4349J091L8874L3712k7271R832K4307l4959P4530l8682n4063k9731
2886a161698N9585J1074L7846o244m3271J4300m621J2291J0526K0739j5256k2875
2874a087604j7446N876K1370n9393o463J7509n4489Q2645j3297J4318Q960j1223
2862a099237m3686M6784K3189l81k4802j6560k663M618L8018L4666l2481K2573
2850a049962j05775J17292k4485m9556L8006k0890o6607O8726n101O23k8257Q601
2838a117385J9887N409K33J6940j5576l3954j2458K9393l2097P3031q1617O1340
2826a086854K423l6595N901P588K7842n4717k3573P872J5088j4862J1352J0114
2814a128421R520j4018K3038j3374K9715m922L3851n624l2298j0704O868J2143
2802a094226k979M2681P0m3756k3537J6105K1151m4501p488M2438r142L3703J5778
2789a053703q1455L996J0848p331q42L951k4262N6422j2357j8580q282R881n9650
2776a181364L8424o309N5059j1193K037L3235o2321n349M411K3017L8564J9285
2764a052504K9770R096k4413k6338M2821p3559l588P047j1861k0794K8543K0678
2752a075102o0882N282N6300p587l4573n8174L3281K2730N1013m8431l8740O2596
2740a092287L776l145n5841J1524L099M6984j8500j3828K2518K060n4100k6130
2728a173870K2778N0780o7104K3114L8558N1123l6396L2630l6041n3813L761M3893
2716a100587J0437k3028J6409j4326K7765n431L2086l8208J0501L303m4387j477
2704a126943J5267Q56L0552K8735P84J9402p7491k2020r396L1345R040L6341k041
2691a065569q740Q886M4950l7954m6279L4500l7828K7313N2337j2535J7381l9669
2679a063207o7428k1855K9573L6303K4409k4459L9312J5295q787l3715p794j0383
2667a092736r782j5857j4283j5069L1059K8658o4369k587K7116j0758N4536p0904
2655a154976O4696k9192j7613O0946m5941n280L7462M674Q2420m3889J9245q0157
2643a107605R614J3957k091l3233o946L9544l8367o790J5676L5286k5794m3899
2631a150648M6585K4652l69n497k6124J8201K5742O138K8075r7411J8728K2098
2619a089830K9622j1959M828m113J7667O509j9006n2012L8585j6660Q553k1951
2607a109767j8566J3522J2853p596R357N0319r291p024m2090J5599l8644R4025
2595a037303M361m9410n3899P2582J5231J234j02624N4993n1833N6544O7840k720
2583a025004p0268K8120L8561m9624j3185K3538O009J6164L1711j0846m2015m22
2571a067261r692L1850N463k0526K467J0114m4485K8195K2988l039n4370l221
2559a101517O398L5019j5380l5371N1391K7073p1608j2194L5707N914O873m5141
2547a112836N0548K078j5751j7711l4650O1106j3246J3897m1678O5169N3515l3550
2535a023109p345o825J1035j6399r053O137J448J3175J7961o2689l792K740J7051
2522a059665Q596j9178m4510J0283j717J2170N171M0160J466M070j6540J668j8917
2509a076943J2589J6489k3918k668M5766J9096o4587k334l4851J5798j3698M0795
2497a068466k605K490m948l6121O5707j8753J0410J3751r941o221n3399J1366
2485a096730O435k2236M1259j5685J3724k6740K942j2052J8015k033M1743j8158
2473a069516n9971O5481p9771m6988N5930K1193K0272M879n6049K7585N6681L3639
2461a026635n5957k6020N7304N572k5681K4493n7430L2702L9082l9792J7870l5873
2449a090365m3390O4048J2957j2211l6902J488N9033O04M2365n5896K5636j0399
2437a043032m1496r64J2953J7268n485j9791K4537K9100n2764k7799O738Q0808
2425a019927O189p2008K104M5933n6709j8883o82J3741J7253J8582j0332J5421
2413a059318l3789l5901Q1158j2177j6737L9948l65l2455K5566j5772Q3001K0163
2401i56678n8549m4549j7067J9049K1148L7400n919o7954M2432n3047M3009n642
2389a046367M4534n8296K1060j4658k6955k514j9425R616K6132j8837j2888M9490
2377a049108K200j0752o8410M5071Q598N3488j1733n9374m2361j4683J04897m4600
2365a086767j6605L0560j1447J6757N5141n1849N182n555J3024l5550J7801M3813
2353a025495o1460K8871n383K6914k6649M420Q693K0532K981Q306p072p6489M6722
2340a055109J9207k4520m8557P0672m9233J7833J3761l0666L9857l8516j7615
2329a102886M6228j9391k3777M3792L0987m3859N325P981M6647k2490o2079O4764
2317a028758n1660L4082J7001q903n9128K9531N0184K175q1920J2040L8326k0007
2305a067037N2127l4922q695m4959P8793q722n2769L7743n743M286N0911L131
2293i95856k4756m1716O1483o7009k2080K1350k281J5358L8925j468j8472j8410
2281a054932p772r182k2781J0064O3173m569n1221l308p677J8232M0456m4227
2269a073744N9989K2436k2452L673l6196j1420m5881j7925L6860l172K8714L2164
2257a026954N012o0454Q75J2994j9240L4151l3571N6166m6317Q717J6282K3234
2245a029105o2641K9922K7422m7884J1324j036K1636k0355L0048J9563j1753J662
2233a031197j4075N091o0324L2679N749K0298P592k301K0114K9995n1166N750
2221a031795J986k7931M8853k0360n0347k050J8241j1261K2575K7673O937M3494
2209i73985o7645P25o6870L7396J6323N7288L5191n6250n0767j4010N0938j3563
2197a045229k226N8432n0313m8508l3779P4188K040m2608M5555o192l9769J818
2185a086591N2937k703J3518J9972n9725N0489k7934J3729o4145O8940j3596l1508
2173a066617N872L9948m4148k3435K6034j2530j6281J6583M1612j8865K9588l0483
2161a052722m9642L6028j9533k8127j3748R9530J7466l7873L033K6142m2470L3027
2149a028889m8025L892K7763J6177o750k6891J839q923j6202L4723J4362J7339
2137a019585K6221k2181K3042n495l5862J20j2284j824l1286M3526n2355L4361
2125a053602N3307l59n5502Q091o617J3439l6280J0049P7196l644o2407M9148
2113a007181k3593o5195O655M1760K7883j7307l954k6178M3621O6542m3976R920
2101i91003k5774k1336J7770k3001N2872k281p6604j4010L1572j7330L8149L033
2089a027943l5857K7185r2441J13810l0062k9107R4005P472q0305k6704M2044
2078a037903j6663j4720k7928K1396K5013M9782j9812n3609M8283l1107K098R851
2066a045319m452k2767J7139q90L357K6604L8943m9216J7982k4728P020k4825
2054a061152m4402O3700L8107m6565J643K6895k979l9731K1370j840L2180M290
2042a008484j6537J673k6559M699K4435N0422k8802r0429n960J11011o029n5036
2030a045596L2324n0912r305N2042m0138J72j0095N9469J9965q053K5149p155
2018i82133k4002l2254k9115K1779J4529J1976O933j0011k2646K2270n3479M6445
2006a029708M5757q0034m1766J09114K7893m0476N2786q3398M2602j10106R1894
1995a015442j3759K2422l3050N693J3137j6610p374j8445j7376J20993K1776o8072
1983a006107q491r1986O6361M1070k1311m3033P0681J3214l1673m3339O9514j4235
1971i99335m8613p592R719M963J8580j8043k2904J5978L1034p796j1558k4894
1959a060461M1423R119j4460L0242n364j5702n3321N2908j24M95l9962m3277L2089
1946a066395K7282L931j3150j709L278M532n699J9396M3755k9033k5134N5649
1934i83297m696J4357j2846k2516r891j4777M6757j4166j714J9288M004j0386
1922i89883k4045j6J5462j1874M6414P702l5704r8861N5808m932L4736Q047k720
1909i99866Q385k5912m5325L0823O323k2785L9065k9482k144r50k2439N1148R15
1896a012244m5831M2868j373j7644M8150o95o2385k69M3277Q702k9359N1798k8024
1883a003029K6458k8449L788J7644L591n13l0452K2032N877m8097J6824k7600
1871a041926O64L2913L2373m0107n101j2485K3078J0385K9260m3942k5091K1601
1859a018378n639J6845m908m3692L7889J8620j1384K269k1450K8345j5768j5577
1847a032828l0270L4381L1434l8897L928P1388l5436l6203j31J4738o606M3144
1835i81358N412M3780o3054J3064j1422n4385P0159L811o0128M3544k3474N7709
1823i56342K2874m6062j380K185K672j3918k0513q821j7972N0977k80K682l7272
1810a021170j7901q101J01602k6638n9543M3144l7405k6502K7769m2110L2038
1799a034817N839L2881P908n2321j4176O380r477J4811P6886n6506m575N479J7782
1786a003906N3402M724n5865o6816k214N0364n0364N0562L0413j0027k5626L3476
1774i91877l8036j591l7590L8976k4575N3990J2804m967k1408o683J9450j1256
1762a012763k5292L2166L292K1658p478m514K6624l903J3006k1991l5362N269
1750a009288l069L0260l804m208m090J5742j7800K2852k0708k9581J2022l0543
1738a042215p467J6570L1493J293j5295J5049l8063N3299n0768p498L7954K2631
1726i83017k9853L3793r336l8770o569L988J5323J2728P551L1614o3192L607L8519
1713i83614j2379k5478M4956J2579l1694j1612j7662L9917l2997L2925l3711J6088
1701a002682M8288n3841M271k0739N1865J4831k7928P478n7528P4884o1710J8992
1689a003819l10k1303N1903m3370k3752N9753k0021j2725k2089L0433O9902l8849
1677i74247m9012J7994L5160j4660p270M3695n8396o3178N8446l6173j1150N4895
1665a003896k0138J3385M4400J1058M271p5162K65M901J5486J1521N5228n4505
1653i93186p7523J1713O8402j0480l4203M8235J4512j2395L4164o0388L2188J2610
1641i66351k5800j7550J972L8158J0025n328n620j8844L8317J3057j8351j5705
1629i72020q352r01M5911k7052r806n191J0792J5596l1001J2615J1842m8194j6469
1616a022230L5583l911M2685J6833l2357J8930m675p4858L3663M799M5819m3876
1604i83595J5995J0436M020L851m779K6143o0431K4053j2102k765j2588l800N6240
1591i39322j0582o2427K2021K6648K8118q4498J0872N6311m4031j4270O1384k1596
1579i71372l9814K9815P57q0586N8579j0836k8289J0973N4802l1970K7707J219
1567i79015l764k6801K7909j6025K7100l367l2931J8666M8549m437m679n2618
1555a001413J8563m5072M3691L4044k8372K6910k7670K09j8868N778m232n424
1543a001856O151L9412J0788j3032R597m9100L8572l5864L0568M0011N512m1500
1531i60741o0830L8838L7042k9769n5527L3520J6363n1683O1927o6282N3292j0028
1519i93878l2946O8640J1560l9425k1524Q200K4431k4107J5317J8618j0003m758
1507i79875j1960J5535m501k7997J8510k2205Q1269q3079M1174J5170n1517N454
1495a004022L9810j0119O1558n9078m8859K0261O6298r060J7448m1968n539o8625
1483a041895M80M2639k9246k5914N1634m658l5640N487K6403n398N157K3504j0563
1470i98010K7260N4164m4790m772l1487k1910L0987k5170K1019j6648j5631Q3394
1458i41594j0126o4340P9200k1435k6747P6316o4724m8018R0221j03006L7582
1447i96671P468L1501l9170L3584j5417k9737K6816J3888k5565L0803J5091O322
1435i41087m501J1030m00k7703m7617R979K102n537Q30K0080M9749p8817J7894
1422i93998k4309M3156M7963m8969m8643O1565j2815m5561m843j6286K9282l127
1410a016585K9110L2254k2489J326j2617O5924l3907L37r3690J0999O5618J0837
1398i62883j0722M264p5017J6547O0572R212K6793k1972m877J6525l7946K8540
1386i50964j4219K2594P303k4350J9637r813J961n706J0788l0440q736M4775n5639
1373i92809K4815q826j4573j3807M646N4331l197j0135j7265j5980p0872L6146
1361a027526N4854K2576p680L1591l4443k4403M7863K900k4302m0653o6020O7120
1349i98123j8853O9997n9930R882L4430n5985L4561R591k6698J7869M5128o5946
1337a004077r214M8935R549O0813j3112l0456k1761K2856k4767j1998Q721j6479
1325i80990J01193p2580l2942L4681k7185J0221k051m0175N4954J4250J1894J176
1313i27554l8324m9632L1114J9768m225J2982k7622L3426N419J5932M166o5571
1301i90121j8418j7421L9518K5362J0251J2342L940m6712M0357O556L761n7347
1289i87932K3548k4102N5270l3156j2496N8754L3204q4553m7552j6548k3115K1206
1277a037472M265K1443L9375K4418K4382k4177J2518k5479J0629J3368k731l4117
1265i73578J6039J1315K9206k2086m7483K8873M9286o1152P419q375L6873k36
1253i33899l6097N7368j8988q60n686l2391M8920k606p1673K3564J9109n5394
1241a008633j6248k627P407N8507j9231K5818j91l6980J8745L2294Q082m3437
1229i76494q224O7489o9280J0329q915J2842K8700k656o5272L1246k018K2683
1217i59570n978k2144K2082j6531K2788j5029j621k7793K3511L5241k890m1278
1205i89212K2429k747j8671k7198P8935K3234n429o480K8993m3363J456J6474
1193i21579j313j2556n0998P418l0898M7415M1960j2142k8489j6494M7872j5558
1181i45362l891j78M1268n259J4796l1796o1046J1539J7736k0438J5043L2814
1169i34774r673m3798O95L7034L5320r2850J4051P3255m4723j8639k2858L660
1157a003300M4508N0794r3680N2867k9269K0585l1922M8946J651L7247m7776j3296
1145i62645l6932K3595R2330j846j740Q121n7657J8100Q917j0789R437k2264q77
1132i34250p887o142k80M8982R7j9697l8990l7811J6133K3636j6535L0093O762
1119i35889n204j1606J7818j3402R496m0260Q641J0890K1436N7818l6949O5747
1107h51464l8657j7658J8811n2176l150J7584k2631j8474O7468q2562J0415l154
1095i75648L8850n4595Q4622K0895j6619j9558o51m2594P5502j4369l1938j4632
1083i50735j09K129l2599k4064L9259l560N2068J6348k72j1977l3456O42L4407
1070i11919k5941k3277K6520J5265j3988m122j5134j1930l1931J9524M9734N7881
1058h69318o4154J6447M1640m226o0750j6125O2177m0536j2446J5566j5015j2322
1046i59062j8059K1708N269k4520k6n697N4086M2013o0580m9502o946K9563L0384
1033i41369n5794O01K7480J2857l3243K1582L993P3370n7591J4247o2920K1083
1021i75704L2128K0218J0293Q315m0735J0882J7110R781j1578l8217R981J1399
1009i36127J8077n2221M46N0539l4723L1444l5511j348l6522J4303j3835O8390
997i27088N6234l3029m9275o138J9694L7282N249l2016j4979J1711K7992l2593
985i36956j3376q161k0028N5863J1860k271m0313k7760J7382N2506p1116N326
973i77044O491L9353n609l0882P432M1153l7852q507N4995k6673j0313k8503K1600
960i54359L9938j3208j9194J708p812J6746K9784M645k1441M878J1633O1774m0989
947h85897o9294m602L7527j2280m3758M4761L3041p7480N1528m3187K6065k8942
935i72518N8508q17m5914q093j3755K7244J8635L1512n6693N3143m6396k4524
923i79668N858j2247L1559L8714J4505N151J959l1248k6675J0071K7009p8417
911i93429N5847n07m081j6950K4272j3371N6094q925m3944L4196j2334k0244o4790
898a008166J36188k6733k2836j5555J9823l3026K9318l8558K421L4283K1532l1562
886i32871o1169P1696J3328k3124k6458J3544K3690l0180n570N9843r136j5108
874i21515n5641M7975l498l3965O8387l1086L24q762J6387n808n1109m879K2127
861i61063j0875K0313o800J9526k509M4251j9368l293l7574K7815j1799l58k7454
848i69188m4779O7625j3265J7660q188L6608J2589N2586q1643M9163O2549l1178
836h49461m2225O736l6423n1673J6640q270p110k2813L9828q7185L2574Q6801
824i22581j2728Q5621l6341R632J0133n6409J5327q330L6755k3526m4082O0459
812h86070p1054J9695J6441j325n474L1078j6571j1021j8477j2896m3524Q0873
800i18325O093j9190L5882l7899Q284l6430K0739K2070l7284K0797Q449M9061
788h77753L4361L3348p2289k3464j2116j3079n643j4169J6395J176k9103Q748
776i53588k3360M1440J75n6651N6264P2756l908m2050k6245J1274N0232n1131
764i24792k7244J2318m190Q0560j7587o4969L4057j3355O260J6674m0652L1133
752i11787j8437J9392k96J0948n5068J5977J5446n9590O0147M5920m8229N784
740i19793M439J7910m087m2177k2575M4249J8431k8575K7856m9752J9249k459
728i37284L0639p9499k170P7626K4480j0030l1749J3617J1988M7818l7584p726
716h99874J6578k1718L0763l1081o2012M4473l8572J1834J8675k2142K1070N2477
704h79529j606o0976K0210J1385J7741J1094l9935N5396k7642j998k7573Q328
692i15105l3620K0194J3162N8727l1264j6821M5626q4452m634Q302l8919M6498
680i32306N8617k8682q278n5389M9118J3257k3783N0254j5184k3420L8198p934
668h85532J99J2936p4474P8079n4849M6561n4707L0619j674n146k7085j8927O2260
655h91740k7591l0276K5037r612j1533j4630K21M9621k9880K2258R781O8737l8494
642h78101m385l2083j3869O2562j309j5990k0077k3765J6517j6117M7609K0155
630h58853l7813j9392j6584N9284L2074k0873l2314j6147r971M8266j0175o3j6267
617h98828J8987J138l9450J7541k7287M3440j4223q203M481K0795J1650k1609
605h91568k7848P4760p482q3866M9461P5185j8717j8978o0843J4698k9383K3992
593i00589k3681L5349m0022K8224N3659p1193j3616j2517O1395Q653K2961q753
581h60130l6064j4124J8965O746k9471K3814J5545k6835j8255J7209k2476P478
569i17598n584O3335l6679m96L4089m9761O8427o5904M624k1867O1128J460p0255
556i35081j0071M3386O7446m9985k6346K9321j5415O1293l5338m7904o021O493
544i18222N0592l5905j0037K7580n1353K7377m5504K7764m9614O6366Q906m401
532i06451J6332K6363k7603j3837j5279j4347K3939M8185m3389j6434N6206J1312
520h55003k7550J2732n3819j0262O9433k0771j1571K6262J6300k8999O367K6484
508h50397K5150m1633m7309M8981L0564j2164k764j9175k2359J080L2490l2074
496h89610o661Q793K4181J9937k5778L9190p229m8059o110j1834j4870j6499K2346
483i12203Q8179k5562n5364k0174k5021M5941M8027L5669J1932r1283J647J1778
471h86434K7463j4655p128K807J8274o6365l1174O9844O351J603m234k0681l3496
458i37825J6740j8011O1728J6870k8418N965k3204N2189q135K5192l2185j9663
446h88757K1150k3086M5681j3021P897l7062l484q135k1288K6695j5061L6100
434h72371m6230K5431J5655m1823M4712o2383j2194J5688m742M9787l6253L389
422i21334M1202K3888k374j1146J1307k069J7497l4256L1116n9484N6745k6901
410h75809q839J330K9355j6854k8140K4158J4635m5715Q241M1905j9031O1668
398h13096n1322j4037P882K5596l565j3243M9790l4938m733M329k3802l939j4280
385h89358K1022J3510m8419N76K7763l2194L828L8357j4682J3877M2830m8243
373h71133K3895J3552l6950K6782J0830l5422l6683L8240k0042j4750N8153m8666
361h92194K2393Q578J5452J9052n7480K911p404j2762M1452k5202J3177R313M333
348h58381p696j2512K7735Q645l8883N147r265J2266J2070Q6315n6630M91j3037
335h43735k3687j1699k0515n949N294K5059K9356J955K940l1866j1460K6707J308
322h56292K9245j575j4365M3257n1707k2497J2951J0263j5117L844j7745K2322
310h57416p936L8575k0015o112K6640J0607J6559l0770K6440n2429L2350l9141
298h62648R557J2512K2760m1109N075J6224K038N5352p6079k7777j0144N1041
286h43198L4138k0860j5452k6700J6198K989l2534M0281M3688m3456p317j1664
274h63887O879q976K2318r462L532K9797K1262m5955K2713J165p326n839j3774
261h47553K4873L214m5144K0435N576J2696K1434m9815k2624L3446k4178N4350
249h13290J9079l1212k1485Q657L439L1871k9836j1270J6969q615m376j6424L5356
236h21137K10j1628M0570j8531l7419K8777R591J0878m4296M419L4158K0278q78
223g85008m0338j2739J473Q967j9518m706K3891n156J8075j01j2482m064p084
210h38790o759J9684M7867n0073K4140J3950j4408m7836J7546M3902j9077M1670
198g68184n11k5379k9575N2619k6307N526n67j1962q018K7670j2250N268p128
185g98798q939M1317j3431j471Q288M9186o1451o3953j286M1477l6924K7437L5413
172g83135k3468K5019J4910J1717J9680k7783K7920o299m8377K6959k0710J7524
160g66043o352l3269J6009K8118j2164M2430j6643P350n8021K9115Q568R95m988
147g64895J1520K5956j852p964k4159L144j4324j2852J1924m264o95N0934n625
134g33152K248j6229n8135K0305N6675j8526m581j1050q748J1655k7232L3152
122g53618J9358L2138j1896n6687j4442j9147K5559L9590j4013j5644j6158K2313
110g62647J0094K8275l5235k0028K0551k8036M1001j5462m4678K454M9204N98
98g53909K1554k1009k3411j3699J2453l067L786K3270J4001r058J5034k0911L9556
85g15410K8640l0639j2547j4443p092j3816L120K3689k6124N938M2814k2011j3161
72g51042L3452r153k2245L5835j9604N6724l1362l427n1517J1647J293k3457l832
59g76688L7246M677j7972K2350J2692j773l2686J6062m823k3541M8151k6242r356
46g51903J122K0610J0736m9562K4861R077l4675P112K2255k4935M5686J1707k0745
33g28654k9736k4981L6227k1239O1305k2603N0748l294l6895J5316j8635j0321
21g32762J0462K6574o704M3457l3629j4337L310J7169P350k3113K82k1464o450
8g29855K1674J0918j2080j5071K3297Q846j7402j4647
0g24320
##END NTUPLES=NMR SPECTRUM
##END=
